# generated using pymatgen
data_CsKRbMoF6
_symmetry_space_group_name_H-M   'P 1'
_cell_length_a   6.68706950
_cell_length_b   6.68706950
_cell_length_c   6.68706950
_cell_angle_alpha   60.00000000
_cell_angle_beta   60.00000000
_cell_angle_gamma   60.00000000
_symmetry_Int_Tables_number   1
_chemical_formula_structural   CsKRbMoF6
_chemical_formula_sum   'Cs1 K1 Rb1 Mo1 F6'
_cell_volume   211.44261130
_cell_formula_units_Z   1
loop_
 _symmetry_equiv_pos_site_id
 _symmetry_equiv_pos_as_xyz
  1  'x, y, z'
loop_
 _atom_site_type_symbol
 _atom_site_label
 _atom_site_symmetry_multiplicity
 _atom_site_fract_x
 _atom_site_fract_y
 _atom_site_fract_z
 _atom_site_occupancy
  Cs  Cs0  1  0.75000000  0.75000000  0.75000000  1
  K  K1  1  0.25000000  0.25000000  0.25000000  1
  Rb  Rb2  1  -0.00000000  -0.00000000  -0.00000000  1
  Mo  Mo3  1  0.50000000  0.50000000  0.50000000  1
  F  F4  1  0.71869066  0.71869066  0.28130934  1
  F  F5  1  0.28130934  0.28130934  0.71869066  1
  F  F6  1  0.71869066  0.28130934  0.71869066  1
  F  F7  1  0.28130934  0.71869066  0.28130934  1
  F  F8  1  0.28130934  0.71869066  0.71869066  1
  F  F9  1  0.71869066  0.28130934  0.28130934  1
