# generated using pymatgen
data_Cs2EuMnBr6
_symmetry_space_group_name_H-M   'P 1'
_cell_length_a   7.53344494
_cell_length_b   7.53344494
_cell_length_c   7.53344494
_cell_angle_alpha   60.00000000
_cell_angle_beta   60.00000000
_cell_angle_gamma   60.00000000
_symmetry_Int_Tables_number   1
_chemical_formula_structural   Cs2EuMnBr6
_chemical_formula_sum   'Cs2 Eu1 Mn1 Br6'
_cell_volume   302.31928857
_cell_formula_units_Z   1
loop_
 _symmetry_equiv_pos_site_id
 _symmetry_equiv_pos_as_xyz
  1  'x, y, z'
loop_
 _atom_site_type_symbol
 _atom_site_label
 _atom_site_symmetry_multiplicity
 _atom_site_fract_x
 _atom_site_fract_y
 _atom_site_fract_z
 _atom_site_occupancy
  Br  Br0  1  0.79150000  0.79150000  0.20850000  1
  Br  Br1  1  0.20850000  0.20850000  0.79150000  1
  Br  Br2  1  0.79150000  0.20850000  0.79150000  1
  Br  Br3  1  0.20850000  0.79150000  0.20850000  1
  Br  Br4  1  0.20850000  0.79150000  0.79150000  1
  Br  Br5  1  0.79150000  0.20850000  0.20850000  1
  Cs  Cs6  1  0.75000000  0.75000000  0.75000000  1
  Cs  Cs7  1  0.25000000  0.25000000  0.25000000  1
  Eu  Eu8  1  0.50000000  0.50000000  0.50000000  1
  Mn  Mn9  1  0.00000000  0.00000000  0.00000000  1
