# generated using pymatgen
data_CsBaFeHgF6
_symmetry_space_group_name_H-M   'P 1'
_cell_length_a   6.26418826
_cell_length_b   6.26418826
_cell_length_c   6.26418826
_cell_angle_alpha   60.00000000
_cell_angle_beta   60.00000000
_cell_angle_gamma   60.00000000
_symmetry_Int_Tables_number   1
_chemical_formula_structural   CsBaFeHgF6
_chemical_formula_sum   'Cs1 Ba1 Fe1 Hg1 F6'
_cell_volume   173.81185987
_cell_formula_units_Z   1
loop_
 _symmetry_equiv_pos_site_id
 _symmetry_equiv_pos_as_xyz
  1  'x, y, z'
loop_
 _atom_site_type_symbol
 _atom_site_label
 _atom_site_symmetry_multiplicity
 _atom_site_fract_x
 _atom_site_fract_y
 _atom_site_fract_z
 _atom_site_occupancy
  Cs  Cs0  1  0.75000000  0.75000000  0.75000000  1
  Ba  Ba1  1  0.25000000  0.25000000  0.25000000  1
  Fe  Fe2  1  0.00000000  0.00000000  0.00000000  1
  Hg  Hg3  1  0.50000000  0.50000000  0.50000000  1
  F  F4  1  0.77060000  0.77060000  0.22940000  1
  F  F5  1  0.22940000  0.22940000  0.77060000  1
  F  F6  1  0.77060000  0.22940000  0.77060000  1
  F  F7  1  0.22940000  0.77060000  0.22940000  1
  F  F8  1  0.22940000  0.77060000  0.77060000  1
  F  F9  1  0.77060000  0.22940000  0.22940000  1
