# generated using pymatgen
data_K2ZnFeF6
_symmetry_space_group_name_H-M   'P 1'
_cell_length_a   5.78830540
_cell_length_b   5.78830540
_cell_length_c   5.78830540
_cell_angle_alpha   60.00000000
_cell_angle_beta   60.00000000
_cell_angle_gamma   60.00000000
_symmetry_Int_Tables_number   1
_chemical_formula_structural   K2ZnFeF6
_chemical_formula_sum   'K2 Zn1 Fe1 F6'
_cell_volume   137.13215898
_cell_formula_units_Z   1
loop_
 _symmetry_equiv_pos_site_id
 _symmetry_equiv_pos_as_xyz
  1  'x, y, z'
loop_
 _atom_site_type_symbol
 _atom_site_label
 _atom_site_symmetry_multiplicity
 _atom_site_fract_x
 _atom_site_fract_y
 _atom_site_fract_z
 _atom_site_occupancy
  F  F0  1  0.74820000  0.74820000  0.25180000  1
  F  F1  1  0.25180000  0.25180000  0.74820000  1
  F  F2  1  0.74820000  0.25180000  0.74820000  1
  F  F3  1  0.25180000  0.74820000  0.25180000  1
  F  F4  1  0.25180000  0.74820000  0.74820000  1
  F  F5  1  0.74820000  0.25180000  0.25180000  1
  Fe  Fe6  1  1.00000000  1.00000000  1.00000000  1
  K  K7  1  0.75000000  0.75000000  0.75000000  1
  K  K8  1  0.25000000  0.25000000  0.25000000  1
  Zn  Zn9  1  0.50000000  0.50000000  0.50000000  1
