# generated using pymatgen
data_KRb2NbF6
_symmetry_space_group_name_H-M   'P 1'
_cell_length_a   6.57641732
_cell_length_b   6.57641732
_cell_length_c   6.57641732
_cell_angle_alpha   60.00000000
_cell_angle_beta   60.00000000
_cell_angle_gamma   60.00000000
_symmetry_Int_Tables_number   1
_chemical_formula_structural   KRb2NbF6
_chemical_formula_sum   'K1 Rb2 Nb1 F6'
_cell_volume   201.11899743
_cell_formula_units_Z   1
loop_
 _symmetry_equiv_pos_site_id
 _symmetry_equiv_pos_as_xyz
  1  'x, y, z'
loop_
 _atom_site_type_symbol
 _atom_site_label
 _atom_site_symmetry_multiplicity
 _atom_site_fract_x
 _atom_site_fract_y
 _atom_site_fract_z
 _atom_site_occupancy
  F  F0  1  0.72680883  0.72680883  0.27319117  1
  F  F1  1  0.27319117  0.27319117  0.72680883  1
  F  F2  1  0.72680883  0.27319117  0.72680883  1
  F  F3  1  0.27319117  0.72680883  0.27319117  1
  F  F4  1  0.27319117  0.72680883  0.72680883  1
  F  F5  1  0.72680883  0.27319117  0.27319117  1
  K  K6  1  0.00000000  -0.00000000  -0.00000000  1
  Nb  Nb7  1  0.50000000  0.50000000  0.50000000  1
  Rb  Rb8  1  0.75000000  0.75000000  0.75000000  1
  Rb  Rb9  1  0.25000000  0.25000000  0.25000000  1
