# generated using pymatgen
data_MgMnAgAuCl6
_symmetry_space_group_name_H-M   'P 1'
_cell_length_a   6.95219833
_cell_length_b   6.95219783
_cell_length_c   6.95219808
_cell_angle_alpha   59.99999886
_cell_angle_beta   60.00000122
_cell_angle_gamma   59.99999573
_symmetry_Int_Tables_number   1
_chemical_formula_structural   MgMnAgAuCl6
_chemical_formula_sum   'Mg1 Mn1 Ag1 Au1 Cl6'
_cell_volume   237.60271602
_cell_formula_units_Z   1
loop_
 _symmetry_equiv_pos_site_id
 _symmetry_equiv_pos_as_xyz
  1  'x, y, z'
loop_
 _atom_site_type_symbol
 _atom_site_label
 _atom_site_symmetry_multiplicity
 _atom_site_fract_x
 _atom_site_fract_y
 _atom_site_fract_z
 _atom_site_occupancy
  Ag  Ag0  1  0.25000000  0.25000000  0.25000000  1
  Au  Au1  1  0.75000000  0.75000000  0.75000000  1
  Mg  Mg2  1  -0.00000000  -0.00000000  0.00000000  1
  Mn  Mn3  1  0.50000000  0.50000000  0.50000000  1
  Cl  Cl4  1  0.74976606  0.74976606  0.25023394  1
  Cl  Cl5  1  0.25023394  0.25023394  0.74976606  1
  Cl  Cl6  1  0.74976606  0.25023394  0.74976606  1
  Cl  Cl7  1  0.25023394  0.74976606  0.25023394  1
  Cl  Cl8  1  0.25023394  0.74976606  0.74976606  1
  Cl  Cl9  1  0.74976606  0.25023394  0.25023394  1
