# generated using pymatgen
data_BaCuHgPbF6
_symmetry_space_group_name_H-M   'P 1'
_cell_length_a   6.32710249
_cell_length_b   6.32710217
_cell_length_c   6.32710268
_cell_angle_alpha   60.00000304
_cell_angle_beta   60.00000471
_cell_angle_gamma   59.99999819
_symmetry_Int_Tables_number   1
_chemical_formula_structural   BaCuHgPbF6
_chemical_formula_sum   'Ba1 Cu1 Hg1 Pb1 F6'
_cell_volume   179.10166397
_cell_formula_units_Z   1
loop_
 _symmetry_equiv_pos_site_id
 _symmetry_equiv_pos_as_xyz
  1  'x, y, z'
loop_
 _atom_site_type_symbol
 _atom_site_label
 _atom_site_symmetry_multiplicity
 _atom_site_fract_x
 _atom_site_fract_y
 _atom_site_fract_z
 _atom_site_occupancy
  Ba  Ba0  1  0.25000000  0.25000000  0.25000000  1
  Pb  Pb1  1  0.75000000  0.75000000  0.75000000  1
  Cu  Cu2  1  -0.00000000  0.00000000  0.00000000  1
  Hg  Hg3  1  0.50000000  0.50000000  0.50000000  1
  F  F4  1  0.77224486  0.77224486  0.22775514  1
  F  F5  1  0.22775514  0.22775514  0.77224486  1
  F  F6  1  0.77224486  0.22775514  0.77224486  1
  F  F7  1  0.22775514  0.77224486  0.22775514  1
  F  F8  1  0.22775514  0.77224486  0.77224486  1
  F  F9  1  0.77224486  0.22775514  0.22775514  1
