# generated using pymatgen
data_MnBeTlAgF6
_symmetry_space_group_name_H-M   'P 1'
_cell_length_a   6.29435856
_cell_length_b   6.29435875
_cell_length_c   6.29435859
_cell_angle_alpha   60.00000082
_cell_angle_beta   59.99999984
_cell_angle_gamma   60.00000087
_symmetry_Int_Tables_number   1
_chemical_formula_structural   MnBeTlAgF6
_chemical_formula_sum   'Mn1 Be1 Tl1 Ag1 F6'
_cell_volume   176.33538036
_cell_formula_units_Z   1
loop_
 _symmetry_equiv_pos_site_id
 _symmetry_equiv_pos_as_xyz
  1  'x, y, z'
loop_
 _atom_site_type_symbol
 _atom_site_label
 _atom_site_symmetry_multiplicity
 _atom_site_fract_x
 _atom_site_fract_y
 _atom_site_fract_z
 _atom_site_occupancy
  Be  Be0  1  0.25000000  0.25000000  0.25000000  1
  Ag  Ag1  1  0.75000000  0.75000000  0.75000000  1
  Mn  Mn2  1  0.00000000  0.00000000  -0.00000000  1
  Tl  Tl3  1  0.50000000  0.50000000  0.50000000  1
  F  F4  1  0.78801695  0.78801695  0.21198305  1
  F  F5  1  0.21198305  0.21198305  0.78801695  1
  F  F6  1  0.78801695  0.21198305  0.78801695  1
  F  F7  1  0.21198305  0.78801695  0.21198305  1
  F  F8  1  0.21198305  0.78801695  0.78801695  1
  F  F9  1  0.78801695  0.21198305  0.21198305  1
