# generated using pymatgen
data_CsNaBeZnI6
_symmetry_space_group_name_H-M   'P 1'
_cell_length_a   9.03769784
_cell_length_b   9.03769768
_cell_length_c   9.03769748
_cell_angle_alpha   59.99999858
_cell_angle_beta   59.99999915
_cell_angle_gamma   60.00000011
_symmetry_Int_Tables_number   1
_chemical_formula_structural   CsNaBeZnI6
_chemical_formula_sum   'Cs1 Na1 Be1 Zn1 I6'
_cell_volume   521.98547947
_cell_formula_units_Z   1
loop_
 _symmetry_equiv_pos_site_id
 _symmetry_equiv_pos_as_xyz
  1  'x, y, z'
loop_
 _atom_site_type_symbol
 _atom_site_label
 _atom_site_symmetry_multiplicity
 _atom_site_fract_x
 _atom_site_fract_y
 _atom_site_fract_z
 _atom_site_occupancy
  Be  Be0  1  0.25000000  0.25000000  0.25000000  1
  Na  Na1  1  0.75000000  0.75000000  0.75000000  1
  Zn  Zn2  1  0.00000000  -0.00000000  -0.00000000  1
  Cs  Cs3  1  0.50000000  0.50000000  0.50000000  1
  I  I4  1  0.78052243  0.78052243  0.21947757  1
  I  I5  1  0.21947757  0.21947757  0.78052243  1
  I  I6  1  0.78052243  0.21947757  0.78052243  1
  I  I7  1  0.21947757  0.78052243  0.21947757  1
  I  I8  1  0.21947757  0.78052243  0.78052243  1
  I  I9  1  0.78052243  0.21947757  0.21947757  1
