# generated using pymatgen
data_CsRbBaCdI6
_symmetry_space_group_name_H-M   'P 1'
_cell_length_a   9.62742059
_cell_length_b   9.62742083
_cell_length_c   9.62742038
_cell_angle_alpha   59.99999871
_cell_angle_beta   59.99999791
_cell_angle_gamma   60.00000103
_symmetry_Int_Tables_number   1
_chemical_formula_structural   CsRbBaCdI6
_chemical_formula_sum   'Cs1 Rb1 Ba1 Cd1 I6'
_cell_volume   630.97889220
_cell_formula_units_Z   1
loop_
 _symmetry_equiv_pos_site_id
 _symmetry_equiv_pos_as_xyz
  1  'x, y, z'
loop_
 _atom_site_type_symbol
 _atom_site_label
 _atom_site_symmetry_multiplicity
 _atom_site_fract_x
 _atom_site_fract_y
 _atom_site_fract_z
 _atom_site_occupancy
  Cd  Cd0  1  0.25000000  0.25000000  0.25000000  1
  Ba  Ba1  1  0.75000000  0.75000000  0.75000000  1
  Rb  Rb2  1  -0.00000000  0.00000000  0.00000000  1
  Cs  Cs3  1  0.50000000  0.50000000  0.50000000  1
  I  I4  1  0.75498041  0.75498041  0.24501959  1
  I  I5  1  0.24501959  0.24501959  0.75498041  1
  I  I6  1  0.75498041  0.24501959  0.75498041  1
  I  I7  1  0.24501959  0.75498041  0.24501959  1
  I  I8  1  0.24501959  0.75498041  0.75498041  1
  I  I9  1  0.75498041  0.24501959  0.24501959  1
