# generated using pymatgen
data_CsEuTlCrI6
_symmetry_space_group_name_H-M   'P 1'
_cell_length_a   9.47136483
_cell_length_b   9.47136484
_cell_length_c   9.47136536
_cell_angle_alpha   60.00000103
_cell_angle_beta   60.00000101
_cell_angle_gamma   59.99999905
_symmetry_Int_Tables_number   1
_chemical_formula_structural   CsEuTlCrI6
_chemical_formula_sum   'Cs1 Eu1 Tl1 Cr1 I6'
_cell_volume   600.79004442
_cell_formula_units_Z   1
loop_
 _symmetry_equiv_pos_site_id
 _symmetry_equiv_pos_as_xyz
  1  'x, y, z'
loop_
 _atom_site_type_symbol
 _atom_site_label
 _atom_site_symmetry_multiplicity
 _atom_site_fract_x
 _atom_site_fract_y
 _atom_site_fract_z
 _atom_site_occupancy
  Cr  Cr0  1  0.25000000  0.25000000  0.25000000  1
  Tl  Tl1  1  0.75000000  0.75000000  0.75000000  1
  Cs  Cs2  1  -0.00000000  0.00000000  -0.00000000  1
  Eu  Eu3  1  0.50000000  0.50000000  0.50000000  1
  I  I4  1  0.73363312  0.73363312  0.26636688  1
  I  I5  1  0.26636688  0.26636688  0.73363312  1
  I  I6  1  0.73363312  0.26636688  0.73363312  1
  I  I7  1  0.26636688  0.73363312  0.26636688  1
  I  I8  1  0.26636688  0.73363312  0.73363312  1
  I  I9  1  0.73363312  0.26636688  0.26636688  1
