# generated using pymatgen
data_CsLiCeCuI6
_symmetry_space_group_name_H-M   'P 1'
_cell_length_a   8.56235310
_cell_length_b   8.56235280
_cell_length_c   8.56235316
_cell_angle_alpha   60.00000050
_cell_angle_beta   60.00000167
_cell_angle_gamma   60.00000103
_symmetry_Int_Tables_number   1
_chemical_formula_structural   CsLiCeCuI6
_chemical_formula_sum   'Cs1 Li1 Ce1 Cu1 I6'
_cell_volume   443.87879762
_cell_formula_units_Z   1
loop_
 _symmetry_equiv_pos_site_id
 _symmetry_equiv_pos_as_xyz
  1  'x, y, z'
loop_
 _atom_site_type_symbol
 _atom_site_label
 _atom_site_symmetry_multiplicity
 _atom_site_fract_x
 _atom_site_fract_y
 _atom_site_fract_z
 _atom_site_occupancy
  Cu  Cu0  1  0.25000000  0.25000000  0.25000000  1
  Ce  Ce1  1  0.75000000  0.75000000  0.75000000  1
  Li  Li2  1  0.00000000  0.00000000  -0.00000000  1
  Cs  Cs3  1  0.50000000  0.50000000  0.50000000  1
  I  I4  1  0.77493484  0.77493484  0.22506516  1
  I  I5  1  0.22506516  0.22506516  0.77493484  1
  I  I6  1  0.77493484  0.22506516  0.77493484  1
  I  I7  1  0.22506516  0.77493484  0.22506516  1
  I  I8  1  0.22506516  0.77493484  0.77493484  1
  I  I9  1  0.77493484  0.22506516  0.22506516  1
