# generated using pymatgen
data_NaInHgAuCl6
_symmetry_space_group_name_H-M   'P 1'
_cell_length_a   7.40858969
_cell_length_b   7.40858974
_cell_length_c   7.40858929
_cell_angle_alpha   60.00000200
_cell_angle_beta   60.00000179
_cell_angle_gamma   59.99999904
_symmetry_Int_Tables_number   1
_chemical_formula_structural   NaInHgAuCl6
_chemical_formula_sum   'Na1 In1 Hg1 Au1 Cl6'
_cell_volume   287.53559796
_cell_formula_units_Z   1
loop_
 _symmetry_equiv_pos_site_id
 _symmetry_equiv_pos_as_xyz
  1  'x, y, z'
loop_
 _atom_site_type_symbol
 _atom_site_label
 _atom_site_symmetry_multiplicity
 _atom_site_fract_x
 _atom_site_fract_y
 _atom_site_fract_z
 _atom_site_occupancy
  In  In0  1  0.25000000  0.25000000  0.25000000  1
  Au  Au1  1  0.75000000  0.75000000  0.75000000  1
  Na  Na2  1  0.00000000  -0.00000000  -0.00000000  1
  Hg  Hg3  1  0.50000000  0.50000000  0.50000000  1
  Cl  Cl4  1  0.74579590  0.74579590  0.25420410  1
  Cl  Cl5  1  0.25420410  0.25420410  0.74579590  1
  Cl  Cl6  1  0.74579590  0.25420410  0.74579590  1
  Cl  Cl7  1  0.25420410  0.74579590  0.25420410  1
  Cl  Cl8  1  0.25420410  0.74579590  0.74579590  1
  Cl  Cl9  1  0.74579590  0.25420410  0.25420410  1
