# generated using pymatgen
data_RbNaLiCeI6
_symmetry_space_group_name_H-M   'P 1'
_cell_length_a   8.65700763
_cell_length_b   8.65700787
_cell_length_c   8.65700805
_cell_angle_alpha   60.00000194
_cell_angle_beta   60.00000100
_cell_angle_gamma   60.00000010
_symmetry_Int_Tables_number   1
_chemical_formula_structural   RbNaLiCeI6
_chemical_formula_sum   'Rb1 Na1 Li1 Ce1 I6'
_cell_volume   458.76306540
_cell_formula_units_Z   1
loop_
 _symmetry_equiv_pos_site_id
 _symmetry_equiv_pos_as_xyz
  1  'x, y, z'
loop_
 _atom_site_type_symbol
 _atom_site_label
 _atom_site_symmetry_multiplicity
 _atom_site_fract_x
 _atom_site_fract_y
 _atom_site_fract_z
 _atom_site_occupancy
  Li  Li0  1  0.25000000  0.25000000  0.25000000  1
  Ce  Ce1  1  0.75000000  0.75000000  0.75000000  1
  Na  Na2  1  -0.00000000  0.00000000  -0.00000000  1
  Rb  Rb3  1  0.50000000  0.50000000  0.50000000  1
  I  I4  1  0.76267315  0.76267315  0.23732685  1
  I  I5  1  0.23732685  0.23732685  0.76267315  1
  I  I6  1  0.76267315  0.23732685  0.76267315  1
  I  I7  1  0.23732685  0.76267315  0.23732685  1
  I  I8  1  0.23732685  0.76267315  0.76267315  1
  I  I9  1  0.76267315  0.23732685  0.23732685  1
