# generated using pymatgen
data_CsLiAgSbF6
_symmetry_space_group_name_H-M   'P 1'
_cell_length_a   6.55198231
_cell_length_b   6.55198242
_cell_length_c   6.55198207
_cell_angle_alpha   59.99999614
_cell_angle_beta   59.99999559
_cell_angle_gamma   59.99999438
_symmetry_Int_Tables_number   1
_chemical_formula_structural   CsLiAgSbF6
_chemical_formula_sum   'Cs1 Li1 Ag1 Sb1 F6'
_cell_volume   198.88548858
_cell_formula_units_Z   1
loop_
 _symmetry_equiv_pos_site_id
 _symmetry_equiv_pos_as_xyz
  1  'x, y, z'
loop_
 _atom_site_type_symbol
 _atom_site_label
 _atom_site_symmetry_multiplicity
 _atom_site_fract_x
 _atom_site_fract_y
 _atom_site_fract_z
 _atom_site_occupancy
  Li  Li0  1  0.25000000  0.25000000  0.25000000  1
  Cs  Cs1  1  0.75000000  0.75000000  0.75000000  1
  Ag  Ag2  1  0.00000000  -0.00000000  0.00000000  1
  Sb  Sb3  1  0.50000000  0.50000000  0.50000000  1
  F  F4  1  0.73673898  0.73673898  0.26326102  1
  F  F5  1  0.26326102  0.26326102  0.73673898  1
  F  F6  1  0.73673898  0.26326102  0.73673898  1
  F  F7  1  0.26326102  0.73673898  0.26326102  1
  F  F8  1  0.26326102  0.73673898  0.73673898  1
  F  F9  1  0.73673898  0.26326102  0.26326102  1
