# generated using pymatgen
data_NaLiHgRhCl6
_symmetry_space_group_name_H-M   'P 1'
_cell_length_a   7.19202251
_cell_length_b   7.19202206
_cell_length_c   7.19202199
_cell_angle_alpha   59.99999606
_cell_angle_beta   59.99999811
_cell_angle_gamma   59.99999669
_symmetry_Int_Tables_number   1
_chemical_formula_structural   NaLiHgRhCl6
_chemical_formula_sum   'Na1 Li1 Hg1 Rh1 Cl6'
_cell_volume   263.04983142
_cell_formula_units_Z   1
loop_
 _symmetry_equiv_pos_site_id
 _symmetry_equiv_pos_as_xyz
  1  'x, y, z'
loop_
 _atom_site_type_symbol
 _atom_site_label
 _atom_site_symmetry_multiplicity
 _atom_site_fract_x
 _atom_site_fract_y
 _atom_site_fract_z
 _atom_site_occupancy
  Li  Li0  1  0.25000000  0.25000000  0.25000000  1
  Na  Na1  1  0.75000000  0.75000000  0.75000000  1
  Rh  Rh2  1  0.00000000  0.00000000  -0.00000000  1
  Hg  Hg3  1  0.50000000  0.50000000  0.50000000  1
  Cl  Cl4  1  0.76638384  0.76638384  0.23361616  1
  Cl  Cl5  1  0.23361616  0.23361616  0.76638384  1
  Cl  Cl6  1  0.76638384  0.23361616  0.76638384  1
  Cl  Cl7  1  0.23361616  0.76638384  0.23361616  1
  Cl  Cl8  1  0.23361616  0.76638384  0.76638384  1
  Cl  Cl9  1  0.76638384  0.23361616  0.23361616  1
