# generated using pymatgen
data_LiBeHgPbF6
_symmetry_space_group_name_H-M   'P 1'
_cell_length_a   5.89034103
_cell_length_b   5.89034096
_cell_length_c   5.89034125
_cell_angle_alpha   59.99999837
_cell_angle_beta   59.99999875
_cell_angle_gamma   60.00000179
_symmetry_Int_Tables_number   1
_chemical_formula_structural   LiBeHgPbF6
_chemical_formula_sum   'Li1 Be1 Hg1 Pb1 F6'
_cell_volume   144.51280451
_cell_formula_units_Z   1
loop_
 _symmetry_equiv_pos_site_id
 _symmetry_equiv_pos_as_xyz
  1  'x, y, z'
loop_
 _atom_site_type_symbol
 _atom_site_label
 _atom_site_symmetry_multiplicity
 _atom_site_fract_x
 _atom_site_fract_y
 _atom_site_fract_z
 _atom_site_occupancy
  Li  Li0  1  0.25000000  0.25000000  0.25000000  1
  Pb  Pb1  1  0.75000000  0.75000000  0.75000000  1
  Be  Be2  1  -0.00000000  0.00000000  -0.00000000  1
  Hg  Hg3  1  0.50000000  0.50000000  0.50000000  1
  F  F4  1  0.78918067  0.78918067  0.21081933  1
  F  F5  1  0.21081933  0.21081933  0.78918067  1
  F  F6  1  0.78918067  0.21081933  0.78918067  1
  F  F7  1  0.21081933  0.78918067  0.21081933  1
  F  F8  1  0.21081933  0.78918067  0.78918067  1
  F  F9  1  0.78918067  0.21081933  0.21081933  1
