# generated using pymatgen
data_RbNaLiSmI6
_symmetry_space_group_name_H-M   'P 1'
_cell_length_a   8.64955498
_cell_length_b   8.64955467
_cell_length_c   8.64955493
_cell_angle_alpha   60.00000158
_cell_angle_beta   60.00000276
_cell_angle_gamma   60.00000066
_symmetry_Int_Tables_number   1
_chemical_formula_structural   RbNaLiSmI6
_chemical_formula_sum   'Rb1 Na1 Li1 Sm1 I6'
_cell_volume   457.57921691
_cell_formula_units_Z   1
loop_
 _symmetry_equiv_pos_site_id
 _symmetry_equiv_pos_as_xyz
  1  'x, y, z'
loop_
 _atom_site_type_symbol
 _atom_site_label
 _atom_site_symmetry_multiplicity
 _atom_site_fract_x
 _atom_site_fract_y
 _atom_site_fract_z
 _atom_site_occupancy
  Li  Li0  1  0.25000000  0.25000000  0.25000000  1
  Sm  Sm1  1  0.75000000  0.75000000  0.75000000  1
  Na  Na2  1  -0.00000000  -0.00000000  0.00000000  1
  Rb  Rb3  1  0.50000000  0.50000000  0.50000000  1
  I  I4  1  0.76280832  0.76280832  0.23719168  1
  I  I5  1  0.23719168  0.23719168  0.76280832  1
  I  I6  1  0.76280832  0.23719168  0.76280832  1
  I  I7  1  0.23719168  0.76280832  0.23719168  1
  I  I8  1  0.23719168  0.76280832  0.76280832  1
  I  I9  1  0.76280832  0.23719168  0.23719168  1
