# generated using pymatgen
data_CsRbCaMgI6
_symmetry_space_group_name_H-M   'P 1'
_cell_length_a   9.53700265
_cell_length_b   9.53700229
_cell_length_c   9.53700230
_cell_angle_alpha   59.99999995
_cell_angle_beta   60.00000120
_cell_angle_gamma   60.00000113
_symmetry_Int_Tables_number   1
_chemical_formula_structural   CsRbCaMgI6
_chemical_formula_sum   'Cs1 Rb1 Ca1 Mg1 I6'
_cell_volume   613.36739661
_cell_formula_units_Z   1
loop_
 _symmetry_equiv_pos_site_id
 _symmetry_equiv_pos_as_xyz
  1  'x, y, z'
loop_
 _atom_site_type_symbol
 _atom_site_label
 _atom_site_symmetry_multiplicity
 _atom_site_fract_x
 _atom_site_fract_y
 _atom_site_fract_z
 _atom_site_occupancy
  Mg  Mg0  1  0.25000000  0.25000000  0.25000000  1
  Ca  Ca1  1  0.75000000  0.75000000  0.75000000  1
  Rb  Rb2  1  0.00000000  0.00000000  -0.00000000  1
  Cs  Cs3  1  0.50000000  0.50000000  0.50000000  1
  I  I4  1  0.75505498  0.75505498  0.24494502  1
  I  I5  1  0.24494502  0.24494502  0.75505498  1
  I  I6  1  0.75505498  0.24494502  0.75505498  1
  I  I7  1  0.24494502  0.75505498  0.24494502  1
  I  I8  1  0.24494502  0.75505498  0.75505498  1
  I  I9  1  0.75505498  0.24494502  0.24494502  1
