# generated using pymatgen
data_LiMgCuSnCl6
_symmetry_space_group_name_H-M   'P 1'
_cell_length_a   6.74175079
_cell_length_b   6.74175111
_cell_length_c   6.74175152
_cell_angle_alpha   60.00000320
_cell_angle_beta   60.00000164
_cell_angle_gamma   60.00000567
_symmetry_Int_Tables_number   1
_chemical_formula_structural   LiMgCuSnCl6
_chemical_formula_sum   'Li1 Mg1 Cu1 Sn1 Cl6'
_cell_volume   216.67219747
_cell_formula_units_Z   1
loop_
 _symmetry_equiv_pos_site_id
 _symmetry_equiv_pos_as_xyz
  1  'x, y, z'
loop_
 _atom_site_type_symbol
 _atom_site_label
 _atom_site_symmetry_multiplicity
 _atom_site_fract_x
 _atom_site_fract_y
 _atom_site_fract_z
 _atom_site_occupancy
  Mg  Mg0  1  0.25000000  0.25000000  0.25000000  1
  Sn  Sn1  1  0.75000000  0.75000000  0.75000000  1
  Li  Li2  1  -0.00000000  0.00000000  -0.00000000  1
  Cu  Cu3  1  0.50000000  0.50000000  0.50000000  1
  Cl  Cl4  1  0.75100223  0.75100223  0.24899777  1
  Cl  Cl5  1  0.24899777  0.24899777  0.75100223  1
  Cl  Cl6  1  0.75100223  0.24899777  0.75100223  1
  Cl  Cl7  1  0.24899777  0.75100223  0.24899777  1
  Cl  Cl8  1  0.24899777  0.75100223  0.75100223  1
  Cl  Cl9  1  0.75100223  0.24899777  0.24899777  1
