# generated using pymatgen
data_CsRbSrMgI6
_symmetry_space_group_name_H-M   'P 1'
_cell_length_a   9.53522252
_cell_length_b   9.53522273
_cell_length_c   9.53522253
_cell_angle_alpha   60.00000068
_cell_angle_beta   59.99999997
_cell_angle_gamma   60.00000070
_symmetry_Int_Tables_number   1
_chemical_formula_structural   CsRbSrMgI6
_chemical_formula_sum   'Cs1 Rb1 Sr1 Mg1 I6'
_cell_volume   613.02405198
_cell_formula_units_Z   1
loop_
 _symmetry_equiv_pos_site_id
 _symmetry_equiv_pos_as_xyz
  1  'x, y, z'
loop_
 _atom_site_type_symbol
 _atom_site_label
 _atom_site_symmetry_multiplicity
 _atom_site_fract_x
 _atom_site_fract_y
 _atom_site_fract_z
 _atom_site_occupancy
  Mg  Mg0  1  0.25000000  0.25000000  0.25000000  1
  Sr  Sr1  1  0.75000000  0.75000000  0.75000000  1
  Rb  Rb2  1  0.00000000  -0.00000000  -0.00000000  1
  Cs  Cs3  1  0.50000000  0.50000000  0.50000000  1
  I  I4  1  0.75500272  0.75500272  0.24499728  1
  I  I5  1  0.24499728  0.24499728  0.75500272  1
  I  I6  1  0.75500272  0.24499728  0.75500272  1
  I  I7  1  0.24499728  0.75500272  0.24499728  1
  I  I8  1  0.24499728  0.75500272  0.75500272  1
  I  I9  1  0.75500272  0.24499728  0.24499728  1
