# generated using pymatgen
data_SrLiMnAgBr6
_symmetry_space_group_name_H-M   'P 1'
_cell_length_a   7.39797216
_cell_length_b   7.39797176
_cell_length_c   7.39797224
_cell_angle_alpha   59.99999786
_cell_angle_beta   59.99999964
_cell_angle_gamma   60.00000066
_symmetry_Int_Tables_number   1
_chemical_formula_structural   SrLiMnAgBr6
_chemical_formula_sum   'Sr1 Li1 Mn1 Ag1 Br6'
_cell_volume   286.30112562
_cell_formula_units_Z   1
loop_
 _symmetry_equiv_pos_site_id
 _symmetry_equiv_pos_as_xyz
  1  'x, y, z'
loop_
 _atom_site_type_symbol
 _atom_site_label
 _atom_site_symmetry_multiplicity
 _atom_site_fract_x
 _atom_site_fract_y
 _atom_site_fract_z
 _atom_site_occupancy
  Mn  Mn0  1  0.25000000  0.25000000  0.25000000  1
  Sr  Sr1  1  0.75000000  0.75000000  0.75000000  1
  Li  Li2  1  -0.00000000  -0.00000000  0.00000000  1
  Ag  Ag3  1  0.50000000  0.50000000  0.50000000  1
  Br  Br4  1  0.75697128  0.75697128  0.24302872  1
  Br  Br5  1  0.24302872  0.24302872  0.75697128  1
  Br  Br6  1  0.75697128  0.24302872  0.75697128  1
  Br  Br7  1  0.24302872  0.75697128  0.24302872  1
  Br  Br8  1  0.24302872  0.75697128  0.75697128  1
  Br  Br9  1  0.75697128  0.24302872  0.24302872  1
