# generated using pymatgen
data_MnTlAgSnCl6
_symmetry_space_group_name_H-M   'P 1'
_cell_length_a   7.44823652
_cell_length_b   7.44823699
_cell_length_c   7.44823720
_cell_angle_alpha   60.00000327
_cell_angle_beta   60.00000119
_cell_angle_gamma   60.00000288
_symmetry_Int_Tables_number   1
_chemical_formula_structural   MnTlAgSnCl6
_chemical_formula_sum   'Mn1 Tl1 Ag1 Sn1 Cl6'
_cell_volume   292.17662695
_cell_formula_units_Z   1
loop_
 _symmetry_equiv_pos_site_id
 _symmetry_equiv_pos_as_xyz
  1  'x, y, z'
loop_
 _atom_site_type_symbol
 _atom_site_label
 _atom_site_symmetry_multiplicity
 _atom_site_fract_x
 _atom_site_fract_y
 _atom_site_fract_z
 _atom_site_occupancy
  Mn  Mn0  1  0.25000000  0.25000000  0.25000000  1
  Tl  Tl1  1  0.75000000  0.75000000  0.75000000  1
  Ag  Ag2  1  0.00000000  -0.00000000  -0.00000000  1
  Sn  Sn3  1  0.50000000  0.50000000  0.50000000  1
  Cl  Cl4  1  0.74962247  0.74962247  0.25037753  1
  Cl  Cl5  1  0.25037753  0.25037753  0.74962247  1
  Cl  Cl6  1  0.74962247  0.25037753  0.74962247  1
  Cl  Cl7  1  0.25037753  0.74962247  0.25037753  1
  Cl  Cl8  1  0.25037753  0.74962247  0.74962247  1
  Cl  Cl9  1  0.74962247  0.25037753  0.25037753  1
