# generated using pymatgen
data_LiMnTlFeF6
_symmetry_space_group_name_H-M   'P 1'
_cell_length_a   5.69947000
_cell_length_b   5.69947050
_cell_length_c   5.69947006
_cell_angle_alpha   59.99999697
_cell_angle_beta   59.99999402
_cell_angle_gamma   59.99999897
_symmetry_Int_Tables_number   1
_chemical_formula_structural   LiMnTlFeF6
_chemical_formula_sum   'Li1 Mn1 Tl1 Fe1 F6'
_cell_volume   130.91470392
_cell_formula_units_Z   1
loop_
 _symmetry_equiv_pos_site_id
 _symmetry_equiv_pos_as_xyz
  1  'x, y, z'
loop_
 _atom_site_type_symbol
 _atom_site_label
 _atom_site_symmetry_multiplicity
 _atom_site_fract_x
 _atom_site_fract_y
 _atom_site_fract_z
 _atom_site_occupancy
  Mn  Mn0  1  0.25000000  0.25000000  0.25000000  1
  Tl  Tl1  1  0.75000000  0.75000000  0.75000000  1
  Li  Li2  1  -0.00000000  -0.00000000  -0.00000000  1
  Fe  Fe3  1  0.50000000  0.50000000  0.50000000  1
  F  F4  1  0.75028036  0.75028036  0.24971964  1
  F  F5  1  0.24971964  0.24971964  0.75028036  1
  F  F6  1  0.75028036  0.24971964  0.75028036  1
  F  F7  1  0.24971964  0.75028036  0.24971964  1
  F  F8  1  0.24971964  0.75028036  0.75028036  1
  F  F9  1  0.75028036  0.24971964  0.24971964  1
