# generated using pymatgen
data_BaNaLiNiI6
_symmetry_space_group_name_H-M   'P 1'
_cell_length_a   8.72059032
_cell_length_b   8.72059023
_cell_length_c   8.72059071
_cell_angle_alpha   60.00000077
_cell_angle_beta   60.00000110
_cell_angle_gamma   60.00000190
_symmetry_Int_Tables_number   1
_chemical_formula_structural   BaNaLiNiI6
_chemical_formula_sum   'Ba1 Na1 Li1 Ni1 I6'
_cell_volume   468.94583460
_cell_formula_units_Z   1
loop_
 _symmetry_equiv_pos_site_id
 _symmetry_equiv_pos_as_xyz
  1  'x, y, z'
loop_
 _atom_site_type_symbol
 _atom_site_label
 _atom_site_symmetry_multiplicity
 _atom_site_fract_x
 _atom_site_fract_y
 _atom_site_fract_z
 _atom_site_occupancy
  Na  Na0  1  0.25000000  0.25000000  0.25000000  1
  Ni  Ni1  1  0.75000000  0.75000000  0.75000000  1
  Li  Li2  1  -0.00000000  0.00000000  0.00000000  1
  Ba  Ba3  1  0.50000000  0.50000000  0.50000000  1
  I  I4  1  0.76963194  0.76963194  0.23036806  1
  I  I5  1  0.23036806  0.23036806  0.76963194  1
  I  I6  1  0.76963194  0.23036806  0.76963194  1
  I  I7  1  0.23036806  0.76963194  0.23036806  1
  I  I8  1  0.23036806  0.76963194  0.76963194  1
  I  I9  1  0.76963194  0.23036806  0.23036806  1
