# generated using pymatgen
data_NaTlSbAuCl6
_symmetry_space_group_name_H-M   'P 1'
_cell_length_a   7.44085594
_cell_length_b   7.44085591
_cell_length_c   7.44085609
_cell_angle_alpha   60.00000216
_cell_angle_beta   60.00000233
_cell_angle_gamma   60.00000310
_symmetry_Int_Tables_number   1
_chemical_formula_structural   NaTlSbAuCl6
_chemical_formula_sum   'Na1 Tl1 Sb1 Au1 Cl6'
_cell_volume   291.30887964
_cell_formula_units_Z   1
loop_
 _symmetry_equiv_pos_site_id
 _symmetry_equiv_pos_as_xyz
  1  'x, y, z'
loop_
 _atom_site_type_symbol
 _atom_site_label
 _atom_site_symmetry_multiplicity
 _atom_site_fract_x
 _atom_site_fract_y
 _atom_site_fract_z
 _atom_site_occupancy
  Na  Na0  1  0.25000000  0.25000000  0.25000000  1
  Sb  Sb1  1  0.75000000  0.75000000  0.75000000  1
  Au  Au2  1  0.00000000  -0.00000000  0.00000000  1
  Tl  Tl3  1  0.50000000  0.50000000  0.50000000  1
  Cl  Cl4  1  0.75693809  0.75693809  0.24306191  1
  Cl  Cl5  1  0.24306191  0.24306191  0.75693809  1
  Cl  Cl6  1  0.75693809  0.24306191  0.75693809  1
  Cl  Cl7  1  0.24306191  0.75693809  0.24306191  1
  Cl  Cl8  1  0.24306191  0.75693809  0.75693809  1
  Cl  Cl9  1  0.75693809  0.24306191  0.24306191  1
