# generated using pymatgen
data_CsNaNdAuI6
_symmetry_space_group_name_H-M   'P 1'
_cell_length_a   8.82116687
_cell_length_b   8.82116694
_cell_length_c   8.82116650
_cell_angle_alpha   59.99999945
_cell_angle_beta   59.99999922
_cell_angle_gamma   60.00000096
_symmetry_Int_Tables_number   1
_chemical_formula_structural   CsNaNdAuI6
_chemical_formula_sum   'Cs1 Na1 Nd1 Au1 I6'
_cell_volume   485.35901365
_cell_formula_units_Z   1
loop_
 _symmetry_equiv_pos_site_id
 _symmetry_equiv_pos_as_xyz
  1  'x, y, z'
loop_
 _atom_site_type_symbol
 _atom_site_label
 _atom_site_symmetry_multiplicity
 _atom_site_fract_x
 _atom_site_fract_y
 _atom_site_fract_z
 _atom_site_occupancy
  Nd  Nd0  1  0.25000000  0.25000000  0.25000000  1
  Au  Au1  1  0.75000000  0.75000000  0.75000000  1
  Na  Na2  1  0.00000000  -0.00000000  -0.00000000  1
  Cs  Cs3  1  0.50000000  0.50000000  0.50000000  1
  I  I4  1  0.76833504  0.76833504  0.23166496  1
  I  I5  1  0.23166496  0.23166496  0.76833504  1
  I  I6  1  0.76833504  0.23166496  0.76833504  1
  I  I7  1  0.23166496  0.76833504  0.23166496  1
  I  I8  1  0.23166496  0.76833504  0.76833504  1
  I  I9  1  0.76833504  0.23166496  0.23166496  1
