# generated using pymatgen
data_CsBaTlNiI6
_symmetry_space_group_name_H-M   'P 1'
_cell_length_a   9.14230402
_cell_length_b   9.14230401
_cell_length_c   9.14230442
_cell_angle_alpha   60.00000104
_cell_angle_beta   60.00000110
_cell_angle_gamma   59.99999921
_symmetry_Int_Tables_number   1
_chemical_formula_structural   CsBaTlNiI6
_chemical_formula_sum   'Cs1 Ba1 Tl1 Ni1 I6'
_cell_volume   540.32119393
_cell_formula_units_Z   1
loop_
 _symmetry_equiv_pos_site_id
 _symmetry_equiv_pos_as_xyz
  1  'x, y, z'
loop_
 _atom_site_type_symbol
 _atom_site_label
 _atom_site_symmetry_multiplicity
 _atom_site_fract_x
 _atom_site_fract_y
 _atom_site_fract_z
 _atom_site_occupancy
  Ni  Ni0  1  0.25000000  0.25000000  0.25000000  1
  Ba  Ba1  1  0.75000000  0.75000000  0.75000000  1
  Cs  Cs2  1  -0.00000000  0.00000000  0.00000000  1
  Tl  Tl3  1  0.50000000  0.50000000  0.50000000  1
  I  I4  1  0.74444123  0.74444123  0.25555877  1
  I  I5  1  0.25555877  0.25555877  0.74444123  1
  I  I6  1  0.74444123  0.25555877  0.74444123  1
  I  I7  1  0.25555877  0.74444123  0.25555877  1
  I  I8  1  0.25555877  0.74444123  0.74444123  1
  I  I9  1  0.74444123  0.25555877  0.25555877  1
