# generated using pymatgen
data_CoCuNiHgCl6
_symmetry_space_group_name_H-M   'P 1'
_cell_length_a   7.00270212
_cell_length_b   7.00270217
_cell_length_c   7.00270209
_cell_angle_alpha   60.00000040
_cell_angle_beta   60.00000018
_cell_angle_gamma   59.99999813
_symmetry_Int_Tables_number   1
_chemical_formula_structural   CoCuNiHgCl6
_chemical_formula_sum   'Co1 Cu1 Ni1 Hg1 Cl6'
_cell_volume   242.81860373
_cell_formula_units_Z   1
loop_
 _symmetry_equiv_pos_site_id
 _symmetry_equiv_pos_as_xyz
  1  'x, y, z'
loop_
 _atom_site_type_symbol
 _atom_site_label
 _atom_site_symmetry_multiplicity
 _atom_site_fract_x
 _atom_site_fract_y
 _atom_site_fract_z
 _atom_site_occupancy
  Ni  Ni0  1  0.25000000  0.25000000  0.25000000  1
  Cu  Cu1  1  0.75000000  0.75000000  0.75000000  1
  Co  Co2  1  -0.00000000  0.00000000  -0.00000000  1
  Hg  Hg3  1  0.50000000  0.50000000  0.50000000  1
  Cl  Cl4  1  0.76453885  0.76453885  0.23546115  1
  Cl  Cl5  1  0.23546115  0.23546115  0.76453885  1
  Cl  Cl6  1  0.76453885  0.23546115  0.76453885  1
  Cl  Cl7  1  0.23546115  0.76453885  0.23546115  1
  Cl  Cl8  1  0.23546115  0.76453885  0.76453885  1
  Cl  Cl9  1  0.76453885  0.23546115  0.23546115  1
