# generated using pymatgen
data_NaNiHgPtCl6
_symmetry_space_group_name_H-M   'P 1'
_cell_length_a   7.27770277
_cell_length_b   7.27770283
_cell_length_c   7.27770318
_cell_angle_alpha   60.00000228
_cell_angle_beta   60.00000202
_cell_angle_gamma   60.00000383
_symmetry_Int_Tables_number   1
_chemical_formula_structural   NaNiHgPtCl6
_chemical_formula_sum   'Na1 Ni1 Hg1 Pt1 Cl6'
_cell_volume   272.56369031
_cell_formula_units_Z   1
loop_
 _symmetry_equiv_pos_site_id
 _symmetry_equiv_pos_as_xyz
  1  'x, y, z'
loop_
 _atom_site_type_symbol
 _atom_site_label
 _atom_site_symmetry_multiplicity
 _atom_site_fract_x
 _atom_site_fract_y
 _atom_site_fract_z
 _atom_site_occupancy
  Ni  Ni0  1  0.25000000  0.25000000  0.25000000  1
  Pt  Pt1  1  0.75000000  0.75000000  0.75000000  1
  Na  Na2  1  0.00000000  0.00000000  -0.00000000  1
  Hg  Hg3  1  0.50000000  0.50000000  0.50000000  1
  Cl  Cl4  1  0.75005517  0.75005517  0.24994483  1
  Cl  Cl5  1  0.24994483  0.24994483  0.75005517  1
  Cl  Cl6  1  0.75005517  0.24994483  0.75005517  1
  Cl  Cl7  1  0.24994483  0.75005517  0.24994483  1
  Cl  Cl8  1  0.24994483  0.75005517  0.75005517  1
  Cl  Cl9  1  0.75005517  0.24994483  0.24994483  1
