# generated using pymatgen
data_CsNa(PdI3)2
_symmetry_space_group_name_H-M   'P 1'
_cell_length_a   9.29027899
_cell_length_b   9.29027887
_cell_length_c   9.29027890
_cell_angle_alpha   59.99999988
_cell_angle_beta   60.00000032
_cell_angle_gamma   59.99999977
_symmetry_Int_Tables_number   1
_chemical_formula_structural   CsNa(PdI3)2
_chemical_formula_sum   'Cs1 Na1 Pd2 I6'
_cell_volume   566.98459662
_cell_formula_units_Z   1
loop_
 _symmetry_equiv_pos_site_id
 _symmetry_equiv_pos_as_xyz
  1  'x, y, z'
loop_
 _atom_site_type_symbol
 _atom_site_label
 _atom_site_symmetry_multiplicity
 _atom_site_fract_x
 _atom_site_fract_y
 _atom_site_fract_z
 _atom_site_occupancy
  Pd  Pd0  1  0.25000000  0.25000000  0.25000000  1
  Pd  Pd1  1  0.75000000  0.75000000  0.75000000  1
  Na  Na2  1  -0.00000000  -0.00000000  0.00000000  1
  Cs  Cs3  1  0.50000000  0.50000000  0.50000000  1
  I  I4  1  0.77403650  0.77403650  0.22596350  1
  I  I5  1  0.22596350  0.22596350  0.77403650  1
  I  I6  1  0.77403650  0.22596350  0.77403650  1
  I  I7  1  0.22596350  0.77403650  0.22596350  1
  I  I8  1  0.22596350  0.77403650  0.77403650  1
  I  I9  1  0.77403650  0.22596350  0.22596350  1
