# generated using pymatgen
data_RbBeHgPbF6
_symmetry_space_group_name_H-M   'P 1'
_cell_length_a   5.99780455
_cell_length_b   5.99780458
_cell_length_c   5.99780512
_cell_angle_alpha   60.00000224
_cell_angle_beta   60.00000206
_cell_angle_gamma   59.99999855
_symmetry_Int_Tables_number   1
_chemical_formula_structural   RbBeHgPbF6
_chemical_formula_sum   'Rb1 Be1 Hg1 Pb1 F6'
_cell_volume   152.56748374
_cell_formula_units_Z   1
loop_
 _symmetry_equiv_pos_site_id
 _symmetry_equiv_pos_as_xyz
  1  'x, y, z'
loop_
 _atom_site_type_symbol
 _atom_site_label
 _atom_site_symmetry_multiplicity
 _atom_site_fract_x
 _atom_site_fract_y
 _atom_site_fract_z
 _atom_site_occupancy
  Rb  Rb0  1  0.25000000  0.25000000  0.25000000  1
  Pb  Pb1  1  0.75000000  0.75000000  0.75000000  1
  Be  Be2  1  -0.00000000  0.00000000  0.00000000  1
  Hg  Hg3  1  0.50000000  0.50000000  0.50000000  1
  F  F4  1  0.79066953  0.79066953  0.20933047  1
  F  F5  1  0.20933047  0.20933047  0.79066953  1
  F  F6  1  0.79066953  0.20933047  0.79066953  1
  F  F7  1  0.20933047  0.79066953  0.20933047  1
  F  F8  1  0.20933047  0.79066953  0.79066953  1
  F  F9  1  0.79066953  0.20933047  0.20933047  1
