# generated using pymatgen
data_NaTiCrAgBr6
_symmetry_space_group_name_H-M   'P 1'
_cell_length_a   7.42469866
_cell_length_b   7.42469872
_cell_length_c   7.42469856
_cell_angle_alpha   59.99999668
_cell_angle_beta   59.99999643
_cell_angle_gamma   59.99999554
_symmetry_Int_Tables_number   1
_chemical_formula_structural   NaTiCrAgBr6
_chemical_formula_sum   'Na1 Ti1 Cr1 Ag1 Br6'
_cell_volume   289.41528113
_cell_formula_units_Z   1
loop_
 _symmetry_equiv_pos_site_id
 _symmetry_equiv_pos_as_xyz
  1  'x, y, z'
loop_
 _atom_site_type_symbol
 _atom_site_label
 _atom_site_symmetry_multiplicity
 _atom_site_fract_x
 _atom_site_fract_y
 _atom_site_fract_z
 _atom_site_occupancy
  Ti  Ti0  1  0.25000000  0.25000000  0.25000000  1
  Ag  Ag1  1  0.75000000  0.75000000  0.75000000  1
  Na  Na2  1  0.00000000  -0.00000000  0.00000000  1
  Cr  Cr3  1  0.50000000  0.50000000  0.50000000  1
  Br  Br4  1  0.73831828  0.73831828  0.26168172  1
  Br  Br5  1  0.26168172  0.26168172  0.73831828  1
  Br  Br6  1  0.73831828  0.26168172  0.73831828  1
  Br  Br7  1  0.26168172  0.73831828  0.26168172  1
  Br  Br8  1  0.26168172  0.73831828  0.73831828  1
  Br  Br9  1  0.73831828  0.26168172  0.26168172  1
