# generated using pymatgen
data_NaEuTiCuCl6
_symmetry_space_group_name_H-M   'P 1'
_cell_length_a   7.40830506
_cell_length_b   7.40830494
_cell_length_c   7.40830506
_cell_angle_alpha   59.99999947
_cell_angle_beta   60.00000003
_cell_angle_gamma   59.99999745
_symmetry_Int_Tables_number   1
_chemical_formula_structural   NaEuTiCuCl6
_chemical_formula_sum   'Na1 Eu1 Ti1 Cu1 Cl6'
_cell_volume   287.50245496
_cell_formula_units_Z   1
loop_
 _symmetry_equiv_pos_site_id
 _symmetry_equiv_pos_as_xyz
  1  'x, y, z'
loop_
 _atom_site_type_symbol
 _atom_site_label
 _atom_site_symmetry_multiplicity
 _atom_site_fract_x
 _atom_site_fract_y
 _atom_site_fract_z
 _atom_site_occupancy
  Ti  Ti0  1  0.25000000  0.25000000  0.25000000  1
  Cu  Cu1  1  0.75000000  0.75000000  0.75000000  1
  Na  Na2  1  0.00000000  -0.00000000  -0.00000000  1
  Eu  Eu3  1  0.50000000  0.50000000  0.50000000  1
  Cl  Cl4  1  0.75553433  0.75553433  0.24446567  1
  Cl  Cl5  1  0.24446567  0.24446567  0.75553433  1
  Cl  Cl6  1  0.75553433  0.24446567  0.75553433  1
  Cl  Cl7  1  0.24446567  0.75553433  0.24446567  1
  Cl  Cl8  1  0.24446567  0.75553433  0.75553433  1
  Cl  Cl9  1  0.75553433  0.24446567  0.24446567  1
