# generated using pymatgen
data_CsLiEuZnI6
_symmetry_space_group_name_H-M   'P 1'
_cell_length_a   8.75819557
_cell_length_b   8.75819563
_cell_length_c   8.75819571
_cell_angle_alpha   59.99999967
_cell_angle_beta   59.99999944
_cell_angle_gamma   59.99999873
_symmetry_Int_Tables_number   1
_chemical_formula_structural   CsLiEuZnI6
_chemical_formula_sum   'Cs1 Li1 Eu1 Zn1 I6'
_cell_volume   475.03862258
_cell_formula_units_Z   1
loop_
 _symmetry_equiv_pos_site_id
 _symmetry_equiv_pos_as_xyz
  1  'x, y, z'
loop_
 _atom_site_type_symbol
 _atom_site_label
 _atom_site_symmetry_multiplicity
 _atom_site_fract_x
 _atom_site_fract_y
 _atom_site_fract_z
 _atom_site_occupancy
  Zn  Zn0  1  0.25000000  0.25000000  0.25000000  1
  Eu  Eu1  1  0.75000000  0.75000000  0.75000000  1
  Li  Li2  1  0.00000000  0.00000000  -0.00000000  1
  Cs  Cs3  1  0.50000000  0.50000000  0.50000000  1
  I  I4  1  0.77610191  0.77610191  0.22389809  1
  I  I5  1  0.22389809  0.22389809  0.77610191  1
  I  I6  1  0.77610191  0.22389809  0.77610191  1
  I  I7  1  0.22389809  0.77610191  0.22389809  1
  I  I8  1  0.22389809  0.77610191  0.77610191  1
  I  I9  1  0.77610191  0.22389809  0.22389809  1
