# generated using pymatgen
data_Cs2CaPdBr6
_symmetry_space_group_name_H-M   'P 1'
_cell_length_a   7.79083180
_cell_length_b   7.79083180
_cell_length_c   7.79083180
_cell_angle_alpha   60.00000000
_cell_angle_beta   60.00000000
_cell_angle_gamma   60.00000000
_symmetry_Int_Tables_number   1
_chemical_formula_structural   Cs2CaPdBr6
_chemical_formula_sum   'Cs2 Ca1 Pd1 Br6'
_cell_volume   334.37706982
_cell_formula_units_Z   1
loop_
 _symmetry_equiv_pos_site_id
 _symmetry_equiv_pos_as_xyz
  1  'x, y, z'
loop_
 _atom_site_type_symbol
 _atom_site_label
 _atom_site_symmetry_multiplicity
 _atom_site_fract_x
 _atom_site_fract_y
 _atom_site_fract_z
 _atom_site_occupancy
  Br  Br0  1  0.73590000  0.73590000  0.26410000  1
  Br  Br1  1  0.26410000  0.26410000  0.73590000  1
  Br  Br2  1  0.73590000  0.26410000  0.73590000  1
  Br  Br3  1  0.26410000  0.73590000  0.26410000  1
  Br  Br4  1  0.26410000  0.73590000  0.73590000  1
  Br  Br5  1  0.73590000  0.26410000  0.26410000  1
  Ca  Ca6  1  1.00000000  1.00000000  1.00000000  1
  Cs  Cs7  1  0.75000000  0.75000000  0.75000000  1
  Cs  Cs8  1  0.25000000  0.25000000  0.25000000  1
  Pd  Pd9  1  0.50000000  0.50000000  0.50000000  1
