# generated using pymatgen
data_Cs2TmTlF6
_symmetry_space_group_name_H-M   'P 1'
_cell_length_a   6.82697455
_cell_length_b   6.82697455
_cell_length_c   6.82697455
_cell_angle_alpha   60.00000000
_cell_angle_beta   60.00000000
_cell_angle_gamma   60.00000000
_symmetry_Int_Tables_number   1
_chemical_formula_structural   Cs2TmTlF6
_chemical_formula_sum   'Cs2 Tm1 Tl1 F6'
_cell_volume   224.99343903
_cell_formula_units_Z   1
loop_
 _symmetry_equiv_pos_site_id
 _symmetry_equiv_pos_as_xyz
  1  'x, y, z'
loop_
 _atom_site_type_symbol
 _atom_site_label
 _atom_site_symmetry_multiplicity
 _atom_site_fract_x
 _atom_site_fract_y
 _atom_site_fract_z
 _atom_site_occupancy
  Cs  Cs0  1  0.75000000  0.75000000  0.75000000  1
  Cs  Cs1  1  0.25000000  0.25000000  0.25000000  1
  F  F2  1  0.78390000  0.78390000  0.21610000  1
  F  F3  1  0.21610000  0.21610000  0.78390000  1
  F  F4  1  0.78390000  0.21610000  0.78390000  1
  F  F5  1  0.21610000  0.78390000  0.21610000  1
  F  F6  1  0.21610000  0.78390000  0.78390000  1
  F  F7  1  0.78390000  0.21610000  0.21610000  1
  Tl  Tl8  1  0.50000000  0.50000000  0.50000000  1
  Tm  Tm9  1  1.00000000  1.00000000  1.00000000  1
