# generated using pymatgen
data_K2NaAlF6
_symmetry_space_group_name_H-M   'P 1'
_cell_length_a   5.83419663
_cell_length_b   5.83419663
_cell_length_c   5.83419663
_cell_angle_alpha   60.00000000
_cell_angle_beta   60.00000000
_cell_angle_gamma   60.00000000
_symmetry_Int_Tables_number   1
_chemical_formula_structural   K2NaAlF6
_chemical_formula_sum   'K2 Na1 Al1 F6'
_cell_volume   140.41974771
_cell_formula_units_Z   1
loop_
 _symmetry_equiv_pos_site_id
 _symmetry_equiv_pos_as_xyz
  1  'x, y, z'
loop_
 _atom_site_type_symbol
 _atom_site_label
 _atom_site_symmetry_multiplicity
 _atom_site_fract_x
 _atom_site_fract_y
 _atom_site_fract_z
 _atom_site_occupancy
  Al  Al0  1  0.50000000  0.50000000  0.50000000  1
  F  F1  1  0.71810000  0.71810000  0.28190000  1
  F  F2  1  0.28190000  0.28190000  0.71810000  1
  F  F3  1  0.71810000  0.28190000  0.71810000  1
  F  F4  1  0.28190000  0.71810000  0.28190000  1
  F  F5  1  0.28190000  0.71810000  0.71810000  1
  F  F6  1  0.71810000  0.28190000  0.28190000  1
  K  K7  1  0.75000000  0.75000000  0.75000000  1
  K  K8  1  0.25000000  0.25000000  0.25000000  1
  Na  Na9  1  0.00000000  0.00000000  0.00000000  1
