# generated using pymatgen
data_Cs2GaHgCl6
_symmetry_space_group_name_H-M   'P 1'
_cell_length_a   7.42942953
_cell_length_b   7.42942953
_cell_length_c   7.42942953
_cell_angle_alpha   60.00000000
_cell_angle_beta   60.00000000
_cell_angle_gamma   60.00000000
_symmetry_Int_Tables_number   1
_chemical_formula_structural   Cs2GaHgCl6
_chemical_formula_sum   'Cs2 Ga1 Hg1 Cl6'
_cell_volume   289.96888922
_cell_formula_units_Z   1
loop_
 _symmetry_equiv_pos_site_id
 _symmetry_equiv_pos_as_xyz
  1  'x, y, z'
loop_
 _atom_site_type_symbol
 _atom_site_label
 _atom_site_symmetry_multiplicity
 _atom_site_fract_x
 _atom_site_fract_y
 _atom_site_fract_z
 _atom_site_occupancy
  Cl  Cl0  1  0.77870000  0.77870000  0.22130000  1
  Cl  Cl1  1  0.22130000  0.22130000  0.77870000  1
  Cl  Cl2  1  0.77870000  0.22130000  0.77870000  1
  Cl  Cl3  1  0.22130000  0.77870000  0.22130000  1
  Cl  Cl4  1  0.22130000  0.77870000  0.77870000  1
  Cl  Cl5  1  0.77870000  0.22130000  0.22130000  1
  Cs  Cs6  1  0.75000000  0.75000000  0.75000000  1
  Cs  Cs7  1  0.25000000  0.25000000  0.25000000  1
  Ga  Ga8  1  1.00000000  1.00000000  1.00000000  1
  Hg  Hg9  1  0.50000000  0.50000000  0.50000000  1
