# generated using pymatgen
data_Cs2KScF6
_symmetry_space_group_name_H-M   'P 1'
_cell_length_a   6.55827397
_cell_length_b   6.55827397
_cell_length_c   6.55827397
_cell_angle_alpha   60.00000000
_cell_angle_beta   60.00000000
_cell_angle_gamma   60.00000000
_symmetry_Int_Tables_number   1
_chemical_formula_structural   Cs2KScF6
_chemical_formula_sum   'Cs2 K1 Sc1 F6'
_cell_volume   199.45901440
_cell_formula_units_Z   1
loop_
 _symmetry_equiv_pos_site_id
 _symmetry_equiv_pos_as_xyz
  1  'x, y, z'
loop_
 _atom_site_type_symbol
 _atom_site_label
 _atom_site_symmetry_multiplicity
 _atom_site_fract_x
 _atom_site_fract_y
 _atom_site_fract_z
 _atom_site_occupancy
  Cs  Cs0  1  0.75000000  0.75000000  0.75000000  1
  Cs  Cs1  1  0.25000000  0.25000000  0.25000000  1
  F  F2  1  0.71700000  0.71700000  0.28300000  1
  F  F3  1  0.28300000  0.28300000  0.71700000  1
  F  F4  1  0.71700000  0.28300000  0.71700000  1
  F  F5  1  0.28300000  0.71700000  0.28300000  1
  F  F6  1  0.28300000  0.71700000  0.71700000  1
  F  F7  1  0.71700000  0.28300000  0.28300000  1
  K  K8  1  0.00000000  0.00000000  0.00000000  1
  Sc  Sc9  1  0.50000000  0.50000000  0.50000000  1
