# generated using pymatgen
data_Cs2SrMnI6
_symmetry_space_group_name_H-M   'P 1'
_cell_length_a   7.88982675
_cell_length_b   7.88982675
_cell_length_c   7.88982675
_cell_angle_alpha   60.00000000
_cell_angle_beta   60.00000000
_cell_angle_gamma   60.00000000
_symmetry_Int_Tables_number   1
_chemical_formula_structural   Cs2SrMnI6
_chemical_formula_sum   'Cs2 Sr1 Mn1 I6'
_cell_volume   347.28610159
_cell_formula_units_Z   1
loop_
 _symmetry_equiv_pos_site_id
 _symmetry_equiv_pos_as_xyz
  1  'x, y, z'
loop_
 _atom_site_type_symbol
 _atom_site_label
 _atom_site_symmetry_multiplicity
 _atom_site_fract_x
 _atom_site_fract_y
 _atom_site_fract_z
 _atom_site_occupancy
  Cs  Cs0  1  0.75000000  0.75000000  0.75000000  1
  Cs  Cs1  1  0.25000000  0.25000000  0.25000000  1
  I  I2  1  0.79930000  0.79930000  0.20070000  1
  I  I3  1  0.20070000  0.20070000  0.79930000  1
  I  I4  1  0.79930000  0.20070000  0.79930000  1
  I  I5  1  0.20070000  0.79930000  0.20070000  1
  I  I6  1  0.20070000  0.79930000  0.79930000  1
  I  I7  1  0.79930000  0.20070000  0.20070000  1
  Mn  Mn8  1  1.00000000  1.00000000  1.00000000  1
  Sr  Sr9  1  0.50000000  0.50000000  0.50000000  1
