# generated using pymatgen
data_Cs2BaMgBr6
_symmetry_space_group_name_H-M   'P 1'
_cell_length_a   8.36217408
_cell_length_b   8.36217408
_cell_length_c   8.36217408
_cell_angle_alpha   60.00000000
_cell_angle_beta   60.00000000
_cell_angle_gamma   60.00000000
_symmetry_Int_Tables_number   1
_chemical_formula_structural   Cs2BaMgBr6
_chemical_formula_sum   'Cs2 Ba1 Mg1 Br6'
_cell_volume   413.46867801
_cell_formula_units_Z   1
loop_
 _symmetry_equiv_pos_site_id
 _symmetry_equiv_pos_as_xyz
  1  'x, y, z'
loop_
 _atom_site_type_symbol
 _atom_site_label
 _atom_site_symmetry_multiplicity
 _atom_site_fract_x
 _atom_site_fract_y
 _atom_site_fract_z
 _atom_site_occupancy
  Ba  Ba0  1  0.50000000  0.50000000  0.50000000  1
  Br  Br1  1  0.77530000  0.77530000  0.22470000  1
  Br  Br2  1  0.22470000  0.22470000  0.77530000  1
  Br  Br3  1  0.77530000  0.22470000  0.77530000  1
  Br  Br4  1  0.22470000  0.77530000  0.22470000  1
  Br  Br5  1  0.22470000  0.77530000  0.77530000  1
  Br  Br6  1  0.77530000  0.22470000  0.22470000  1
  Cs  Cs7  1  0.75000000  0.75000000  0.75000000  1
  Cs  Cs8  1  0.25000000  0.25000000  0.25000000  1
  Mg  Mg9  1  0.00000000  0.00000000  0.00000000  1
