# generated using pymatgen
data_Rb2TlMoF6
_symmetry_space_group_name_H-M   'P 1'
_cell_length_a   6.67728005
_cell_length_b   6.67728005
_cell_length_c   6.67728005
_cell_angle_alpha   60.00000000
_cell_angle_beta   60.00000000
_cell_angle_gamma   60.00000000
_symmetry_Int_Tables_number   1
_chemical_formula_structural   Rb2TlMoF6
_chemical_formula_sum   'Rb2 Tl1 Mo1 F6'
_cell_volume   210.51535317
_cell_formula_units_Z   1
loop_
 _symmetry_equiv_pos_site_id
 _symmetry_equiv_pos_as_xyz
  1  'x, y, z'
loop_
 _atom_site_type_symbol
 _atom_site_label
 _atom_site_symmetry_multiplicity
 _atom_site_fract_x
 _atom_site_fract_y
 _atom_site_fract_z
 _atom_site_occupancy
  F  F0  1  0.78940000  0.78940000  0.21060000  1
  F  F1  1  0.21060000  0.21060000  0.78940000  1
  F  F2  1  0.78940000  0.21060000  0.78940000  1
  F  F3  1  0.21060000  0.78940000  0.21060000  1
  F  F4  1  0.21060000  0.78940000  0.78940000  1
  F  F5  1  0.78940000  0.21060000  0.21060000  1
  Mo  Mo6  1  0.00000000  0.00000000  0.00000000  1
  Rb  Rb7  1  0.75000000  0.75000000  0.75000000  1
  Rb  Rb8  1  0.25000000  0.25000000  0.25000000  1
  Tl  Tl9  1  0.50000000  0.50000000  0.50000000  1
