# generated using pymatgen
data_Rb2TiCrF6
_symmetry_space_group_name_H-M   'P 1'
_cell_length_a   6.48409847
_cell_length_b   6.48409847
_cell_length_c   6.48409847
_cell_angle_alpha   60.00000000
_cell_angle_beta   60.00000000
_cell_angle_gamma   60.00000000
_symmetry_Int_Tables_number   1
_chemical_formula_structural   Rb2TiCrF6
_chemical_formula_sum   'Rb2 Ti1 Cr1 F6'
_cell_volume   192.76749665
_cell_formula_units_Z   1
loop_
 _symmetry_equiv_pos_site_id
 _symmetry_equiv_pos_as_xyz
  1  'x, y, z'
loop_
 _atom_site_type_symbol
 _atom_site_label
 _atom_site_symmetry_multiplicity
 _atom_site_fract_x
 _atom_site_fract_y
 _atom_site_fract_z
 _atom_site_occupancy
  Cr  Cr0  1  0.50000000  0.50000000  0.50000000  1
  F  F1  1  0.72390000  0.72390000  0.27610000  1
  F  F2  1  0.27610000  0.27610000  0.72390000  1
  F  F3  1  0.72390000  0.27610000  0.72390000  1
  F  F4  1  0.27610000  0.72390000  0.27610000  1
  F  F5  1  0.27610000  0.72390000  0.72390000  1
  F  F6  1  0.72390000  0.27610000  0.27610000  1
  Rb  Rb7  1  0.75000000  0.75000000  0.75000000  1
  Rb  Rb8  1  0.25000000  0.25000000  0.25000000  1
  Ti  Ti9  1  1.00000000  1.00000000  1.00000000  1
