# generated using pymatgen
data_Cs2LaAgBr6
_symmetry_space_group_name_H-M   'P 1'
_cell_length_a   8.16482058
_cell_length_b   8.16482058
_cell_length_c   8.16482058
_cell_angle_alpha   60.00000000
_cell_angle_beta   60.00000000
_cell_angle_gamma   60.00000000
_symmetry_Int_Tables_number   1
_chemical_formula_structural   Cs2LaAgBr6
_chemical_formula_sum   'Cs2 La1 Ag1 Br6'
_cell_volume   384.87964145
_cell_formula_units_Z   1
loop_
 _symmetry_equiv_pos_site_id
 _symmetry_equiv_pos_as_xyz
  1  'x, y, z'
loop_
 _atom_site_type_symbol
 _atom_site_label
 _atom_site_symmetry_multiplicity
 _atom_site_fract_x
 _atom_site_fract_y
 _atom_site_fract_z
 _atom_site_occupancy
  Ag  Ag0  1  0.00000000  0.00000000  0.00000000  1
  Br  Br1  1  0.75660000  0.75660000  0.24340000  1
  Br  Br2  1  0.24340000  0.24340000  0.75660000  1
  Br  Br3  1  0.75660000  0.24340000  0.75660000  1
  Br  Br4  1  0.24340000  0.75660000  0.24340000  1
  Br  Br5  1  0.24340000  0.75660000  0.75660000  1
  Br  Br6  1  0.75660000  0.24340000  0.24340000  1
  Cs  Cs7  1  0.75000000  0.75000000  0.75000000  1
  Cs  Cs8  1  0.25000000  0.25000000  0.25000000  1
  La  La9  1  0.50000000  0.50000000  0.50000000  1
