# generated using pymatgen
data_Cs2NaGdCl6
_symmetry_space_group_name_H-M   'P 1'
_cell_length_a   7.69671589
_cell_length_b   7.69671589
_cell_length_c   7.69671589
_cell_angle_alpha   60.00000000
_cell_angle_beta   60.00000000
_cell_angle_gamma   60.00000000
_symmetry_Int_Tables_number   1
_chemical_formula_structural   Cs2NaGdCl6
_chemical_formula_sum   'Cs2 Na1 Gd1 Cl6'
_cell_volume   322.40470387
_cell_formula_units_Z   1
loop_
 _symmetry_equiv_pos_site_id
 _symmetry_equiv_pos_as_xyz
  1  'x, y, z'
loop_
 _atom_site_type_symbol
 _atom_site_label
 _atom_site_symmetry_multiplicity
 _atom_site_fract_x
 _atom_site_fract_y
 _atom_site_fract_z
 _atom_site_occupancy
  Cl  Cl0  1  0.74720000  0.74720000  0.25280000  1
  Cl  Cl1  1  0.25280000  0.25280000  0.74720000  1
  Cl  Cl2  1  0.74720000  0.25280000  0.74720000  1
  Cl  Cl3  1  0.25280000  0.74720000  0.25280000  1
  Cl  Cl4  1  0.25280000  0.74720000  0.74720000  1
  Cl  Cl5  1  0.74720000  0.25280000  0.25280000  1
  Cs  Cs6  1  0.75000000  0.75000000  0.75000000  1
  Cs  Cs7  1  0.25000000  0.25000000  0.25000000  1
  Gd  Gd8  1  0.50000000  0.50000000  0.50000000  1
  Na  Na9  1  1.00000000  1.00000000  1.00000000  1
