# generated using pymatgen
data_BeZn(AgBr3)2
_symmetry_space_group_name_H-M   'P 1'
_cell_length_a   6.87398420
_cell_length_b   6.87398439
_cell_length_c   6.87398400
_cell_angle_alpha   60.00000187
_cell_angle_beta   60.00000096
_cell_angle_gamma   60.00000433
_symmetry_Int_Tables_number   1
_chemical_formula_structural   BeZn(AgBr3)2
_chemical_formula_sum   'Be1 Zn1 Ag2 Br6'
_cell_volume   229.67335455
_cell_formula_units_Z   1
loop_
 _symmetry_equiv_pos_site_id
 _symmetry_equiv_pos_as_xyz
  1  'x, y, z'
loop_
 _atom_site_type_symbol
 _atom_site_label
 _atom_site_symmetry_multiplicity
 _atom_site_fract_x
 _atom_site_fract_y
 _atom_site_fract_z
 _atom_site_occupancy
  Ag  Ag0  1  0.25000000  0.25000000  0.25000000  1
  Ag  Ag1  1  0.75000000  0.75000000  0.75000000  1
  Be  Be2  1  0.00000000  0.00000000  0.00000000  1
  Zn  Zn3  1  0.50000000  0.50000000  0.50000000  1
  Br  Br4  1  0.75000000  0.75000000  0.25000000  1
  Br  Br5  1  0.25000000  0.25000000  0.75000000  1
  Br  Br6  1  0.75000000  0.25000000  0.75000000  1
  Br  Br7  1  0.25000000  0.75000000  0.25000000  1
  Br  Br8  1  0.25000000  0.75000000  0.75000000  1
  Br  Br9  1  0.75000000  0.25000000  0.25000000  1
