# generated using pymatgen
data_CaAg2SnCl6
_symmetry_space_group_name_H-M   'P 1'
_cell_length_a   7.74563330
_cell_length_b   7.74563346
_cell_length_c   7.74563300
_cell_angle_alpha   59.99999771
_cell_angle_beta   59.99999700
_cell_angle_gamma   59.99999625
_symmetry_Int_Tables_number   1
_chemical_formula_structural   CaAg2SnCl6
_chemical_formula_sum   'Ca1 Ag2 Sn1 Cl6'
_cell_volume   328.59107404
_cell_formula_units_Z   1
loop_
 _symmetry_equiv_pos_site_id
 _symmetry_equiv_pos_as_xyz
  1  'x, y, z'
loop_
 _atom_site_type_symbol
 _atom_site_label
 _atom_site_symmetry_multiplicity
 _atom_site_fract_x
 _atom_site_fract_y
 _atom_site_fract_z
 _atom_site_occupancy
  Ag  Ag0  1  0.25000000  0.25000000  0.25000000  1
  Ag  Ag1  1  0.75000000  0.75000000  0.75000000  1
  Ca  Ca2  1  0.00000000  0.00000000  0.00000000  1
  Sn  Sn3  1  0.50000000  0.50000000  0.50000000  1
  Cl  Cl4  1  0.75000000  0.75000000  0.25000000  1
  Cl  Cl5  1  0.25000000  0.25000000  0.75000000  1
  Cl  Cl6  1  0.75000000  0.25000000  0.75000000  1
  Cl  Cl7  1  0.25000000  0.75000000  0.25000000  1
  Cl  Cl8  1  0.25000000  0.75000000  0.75000000  1
  Cl  Cl9  1  0.75000000  0.25000000  0.25000000  1
