# generated using pymatgen
data_NaDy(AgBr3)2
_symmetry_space_group_name_H-M   'P 1'
_cell_length_a   7.93373607
_cell_length_b   7.93373647
_cell_length_c   7.93373600
_cell_angle_alpha   60.00000195
_cell_angle_beta   60.00000028
_cell_angle_gamma   60.00000427
_symmetry_Int_Tables_number   1
_chemical_formula_structural   NaDy(AgBr3)2
_chemical_formula_sum   'Na1 Dy1 Ag2 Br6'
_cell_volume   353.11672475
_cell_formula_units_Z   1
loop_
 _symmetry_equiv_pos_site_id
 _symmetry_equiv_pos_as_xyz
  1  'x, y, z'
loop_
 _atom_site_type_symbol
 _atom_site_label
 _atom_site_symmetry_multiplicity
 _atom_site_fract_x
 _atom_site_fract_y
 _atom_site_fract_z
 _atom_site_occupancy
  Ag  Ag0  1  0.25000000  0.25000000  0.25000000  1
  Ag  Ag1  1  0.75000000  0.75000000  0.75000000  1
  Na  Na2  1  0.00000000  0.00000000  0.00000000  1
  Dy  Dy3  1  0.50000000  0.50000000  0.50000000  1
  Br  Br4  1  0.75000000  0.75000000  0.25000000  1
  Br  Br5  1  0.25000000  0.25000000  0.75000000  1
  Br  Br6  1  0.75000000  0.25000000  0.75000000  1
  Br  Br7  1  0.25000000  0.75000000  0.25000000  1
  Br  Br8  1  0.25000000  0.75000000  0.75000000  1
  Br  Br9  1  0.75000000  0.25000000  0.25000000  1
