# generated using pymatgen
data_NaGd(AgCl3)2
_symmetry_space_group_name_H-M   'P 1'
_cell_length_a   7.57695567
_cell_length_b   7.57695633
_cell_length_c   7.57695600
_cell_angle_alpha   60.00000144
_cell_angle_beta   59.99999857
_cell_angle_gamma   59.99999940
_symmetry_Int_Tables_number   1
_chemical_formula_structural   NaGd(AgCl3)2
_chemical_formula_sum   'Na1 Gd1 Ag2 Cl6'
_cell_volume   307.58793482
_cell_formula_units_Z   1
loop_
 _symmetry_equiv_pos_site_id
 _symmetry_equiv_pos_as_xyz
  1  'x, y, z'
loop_
 _atom_site_type_symbol
 _atom_site_label
 _atom_site_symmetry_multiplicity
 _atom_site_fract_x
 _atom_site_fract_y
 _atom_site_fract_z
 _atom_site_occupancy
  Ag  Ag0  1  0.25000000  0.25000000  0.25000000  1
  Ag  Ag1  1  0.75000000  0.75000000  0.75000000  1
  Na  Na2  1  0.00000000  0.00000000  0.00000000  1
  Gd  Gd3  1  0.50000000  0.50000000  0.50000000  1
  Cl  Cl4  1  0.75000000  0.75000000  0.25000000  1
  Cl  Cl5  1  0.25000000  0.25000000  0.75000000  1
  Cl  Cl6  1  0.75000000  0.25000000  0.75000000  1
  Cl  Cl7  1  0.25000000  0.75000000  0.25000000  1
  Cl  Cl8  1  0.25000000  0.75000000  0.75000000  1
  Cl  Cl9  1  0.75000000  0.25000000  0.25000000  1
