# generated using pymatgen
data_NaPm(AgBr3)2
_symmetry_space_group_name_H-M   'P 1'
_cell_length_a   8.05422572
_cell_length_b   8.05422607
_cell_length_c   8.05422500
_cell_angle_alpha   60.00000030
_cell_angle_beta   59.99999885
_cell_angle_gamma   59.99999831
_symmetry_Int_Tables_number   1
_chemical_formula_structural   NaPm(AgBr3)2
_chemical_formula_sum   'Na1 Pm1 Ag2 Br6'
_cell_volume   369.45058933
_cell_formula_units_Z   1
loop_
 _symmetry_equiv_pos_site_id
 _symmetry_equiv_pos_as_xyz
  1  'x, y, z'
loop_
 _atom_site_type_symbol
 _atom_site_label
 _atom_site_symmetry_multiplicity
 _atom_site_fract_x
 _atom_site_fract_y
 _atom_site_fract_z
 _atom_site_occupancy
  Ag  Ag0  1  0.25000000  0.25000000  0.25000000  1
  Ag  Ag1  1  0.75000000  0.75000000  0.75000000  1
  Na  Na2  1  0.00000000  0.00000000  0.00000000  1
  Pm  Pm3  1  0.50000000  0.50000000  0.50000000  1
  Br  Br4  1  0.75000000  0.75000000  0.25000000  1
  Br  Br5  1  0.25000000  0.25000000  0.75000000  1
  Br  Br6  1  0.75000000  0.25000000  0.75000000  1
  Br  Br7  1  0.25000000  0.75000000  0.25000000  1
  Br  Br8  1  0.25000000  0.75000000  0.75000000  1
  Br  Br9  1  0.75000000  0.25000000  0.25000000  1
