# generated using pymatgen
data_ZnAg2HgCl6
_symmetry_space_group_name_H-M   'P 1'
_cell_length_a   7.22989188
_cell_length_b   7.22989191
_cell_length_c   7.22989100
_cell_angle_alpha   59.99999957
_cell_angle_beta   59.99999945
_cell_angle_gamma   59.99999975
_symmetry_Int_Tables_number   1
_chemical_formula_structural   ZnAg2HgCl6
_chemical_formula_sum   'Zn1 Ag2 Hg1 Cl6'
_cell_volume   267.22701150
_cell_formula_units_Z   1
loop_
 _symmetry_equiv_pos_site_id
 _symmetry_equiv_pos_as_xyz
  1  'x, y, z'
loop_
 _atom_site_type_symbol
 _atom_site_label
 _atom_site_symmetry_multiplicity
 _atom_site_fract_x
 _atom_site_fract_y
 _atom_site_fract_z
 _atom_site_occupancy
  Ag  Ag0  1  0.25000000  0.25000000  0.25000000  1
  Ag  Ag1  1  0.75000000  0.75000000  0.75000000  1
  Zn  Zn2  1  0.00000000  0.00000000  0.00000000  1
  Hg  Hg3  1  0.50000000  0.50000000  0.50000000  1
  Cl  Cl4  1  0.75000000  0.75000000  0.25000000  1
  Cl  Cl5  1  0.25000000  0.25000000  0.75000000  1
  Cl  Cl6  1  0.75000000  0.25000000  0.75000000  1
  Cl  Cl7  1  0.25000000  0.75000000  0.25000000  1
  Cl  Cl8  1  0.25000000  0.75000000  0.75000000  1
  Cl  Cl9  1  0.75000000  0.25000000  0.25000000  1
