# generated using pymatgen
data_BaCrCuAgCl6
_symmetry_space_group_name_H-M   'P 1'
_cell_length_a   6.85467416
_cell_length_b   6.85467411
_cell_length_c   6.85467400
_cell_angle_alpha   60.00000054
_cell_angle_beta   60.00000076
_cell_angle_gamma   60.00000029
_symmetry_Int_Tables_number   1
_chemical_formula_structural   BaCrCuAgCl6
_chemical_formula_sum   'Ba1 Cr1 Cu1 Ag1 Cl6'
_cell_volume   227.74321107
_cell_formula_units_Z   1
loop_
 _symmetry_equiv_pos_site_id
 _symmetry_equiv_pos_as_xyz
  1  'x, y, z'
loop_
 _atom_site_type_symbol
 _atom_site_label
 _atom_site_symmetry_multiplicity
 _atom_site_fract_x
 _atom_site_fract_y
 _atom_site_fract_z
 _atom_site_occupancy
  Ag  Ag0  1  0.25000000  0.25000000  0.25000000  1
  Ba  Ba1  1  0.75000000  0.75000000  0.75000000  1
  Cr  Cr2  1  0.00000000  0.00000000  0.00000000  1
  Cu  Cu3  1  0.50000000  0.50000000  0.50000000  1
  Cl  Cl4  1  0.75000000  0.75000000  0.25000000  1
  Cl  Cl5  1  0.25000000  0.25000000  0.75000000  1
  Cl  Cl6  1  0.75000000  0.25000000  0.75000000  1
  Cl  Cl7  1  0.25000000  0.75000000  0.25000000  1
  Cl  Cl8  1  0.25000000  0.75000000  0.75000000  1
  Cl  Cl9  1  0.75000000  0.25000000  0.25000000  1
