# generated using pymatgen
data_LiCeAgAuCl6
_symmetry_space_group_name_H-M   'P 1'
_cell_length_a   6.74355753
_cell_length_b   6.74355781
_cell_length_c   6.74355700
_cell_angle_alpha   59.99999907
_cell_angle_beta   59.99999771
_cell_angle_gamma   60.00000267
_symmetry_Int_Tables_number   1
_chemical_formula_structural   LiCeAgAuCl6
_chemical_formula_sum   'Li1 Ce1 Ag1 Au1 Cl6'
_cell_volume   216.84638427
_cell_formula_units_Z   1
loop_
 _symmetry_equiv_pos_site_id
 _symmetry_equiv_pos_as_xyz
  1  'x, y, z'
loop_
 _atom_site_type_symbol
 _atom_site_label
 _atom_site_symmetry_multiplicity
 _atom_site_fract_x
 _atom_site_fract_y
 _atom_site_fract_z
 _atom_site_occupancy
  Ag  Ag0  1  0.25000000  0.25000000  0.25000000  1
  Ce  Ce1  1  0.75000000  0.75000000  0.75000000  1
  Li  Li2  1  0.00000000  0.00000000  0.00000000  1
  Au  Au3  1  0.50000000  0.50000000  0.50000000  1
  Cl  Cl4  1  0.75000000  0.75000000  0.25000000  1
  Cl  Cl5  1  0.25000000  0.25000000  0.75000000  1
  Cl  Cl6  1  0.75000000  0.25000000  0.75000000  1
  Cl  Cl7  1  0.25000000  0.75000000  0.25000000  1
  Cl  Cl8  1  0.25000000  0.75000000  0.75000000  1
  Cl  Cl9  1  0.75000000  0.25000000  0.25000000  1
