# generated using pymatgen
data_CsCu2AgCl6
_symmetry_space_group_name_H-M   'P 1'
_cell_length_a   6.99207202
_cell_length_b   6.99207200
_cell_length_c   6.99207200
_cell_angle_alpha   60.00000001
_cell_angle_beta   60.00000009
_cell_angle_gamma   60.00000271
_symmetry_Int_Tables_number   1
_chemical_formula_structural   CsCu2AgCl6
_chemical_formula_sum   'Cs1 Cu2 Ag1 Cl6'
_cell_volume   241.71449129
_cell_formula_units_Z   1
loop_
 _symmetry_equiv_pos_site_id
 _symmetry_equiv_pos_as_xyz
  1  'x, y, z'
loop_
 _atom_site_type_symbol
 _atom_site_label
 _atom_site_symmetry_multiplicity
 _atom_site_fract_x
 _atom_site_fract_y
 _atom_site_fract_z
 _atom_site_occupancy
  Ag  Ag0  1  0.25000000  0.25000000  0.25000000  1
  Cs  Cs1  1  0.75000000  0.75000000  0.75000000  1
  Cu  Cu2  1  0.00000000  0.00000000  0.00000000  1
  Cu  Cu3  1  0.50000000  0.50000000  0.50000000  1
  Cl  Cl4  1  0.75000000  0.75000000  0.25000000  1
  Cl  Cl5  1  0.25000000  0.25000000  0.75000000  1
  Cl  Cl6  1  0.75000000  0.25000000  0.75000000  1
  Cl  Cl7  1  0.25000000  0.75000000  0.25000000  1
  Cl  Cl8  1  0.25000000  0.75000000  0.75000000  1
  Cl  Cl9  1  0.75000000  0.25000000  0.25000000  1
