# generated using pymatgen
data_CsScCuAgBr6
_symmetry_space_group_name_H-M   'P 1'
_cell_length_a   7.49329267
_cell_length_b   7.49329255
_cell_length_c   7.49329300
_cell_angle_alpha   60.00000243
_cell_angle_beta   60.00000294
_cell_angle_gamma   60.00000400
_symmetry_Int_Tables_number   1
_chemical_formula_structural   CsScCuAgBr6
_chemical_formula_sum   'Cs1 Sc1 Cu1 Ag1 Br6'
_cell_volume   297.51107095
_cell_formula_units_Z   1
loop_
 _symmetry_equiv_pos_site_id
 _symmetry_equiv_pos_as_xyz
  1  'x, y, z'
loop_
 _atom_site_type_symbol
 _atom_site_label
 _atom_site_symmetry_multiplicity
 _atom_site_fract_x
 _atom_site_fract_y
 _atom_site_fract_z
 _atom_site_occupancy
  Ag  Ag0  1  0.25000000  0.25000000  0.25000000  1
  Cs  Cs1  1  0.75000000  0.75000000  0.75000000  1
  Sc  Sc2  1  0.00000000  0.00000000  0.00000000  1
  Cu  Cu3  1  0.50000000  0.50000000  0.50000000  1
  Br  Br4  1  0.75000000  0.75000000  0.25000000  1
  Br  Br5  1  0.25000000  0.25000000  0.75000000  1
  Br  Br6  1  0.75000000  0.25000000  0.75000000  1
  Br  Br7  1  0.25000000  0.75000000  0.25000000  1
  Br  Br8  1  0.25000000  0.75000000  0.75000000  1
  Br  Br9  1  0.75000000  0.25000000  0.25000000  1
