# generated using pymatgen
data_CsCrAgPbCl6
_symmetry_space_group_name_H-M   'P 1'
_cell_length_a   9.01508644
_cell_length_b   9.01508685
_cell_length_c   9.01508700
_cell_angle_alpha   60.00000313
_cell_angle_beta   60.00000161
_cell_angle_gamma   60.00000472
_symmetry_Int_Tables_number   1
_chemical_formula_structural   CsCrAgPbCl6
_chemical_formula_sum   'Cs1 Cr1 Ag1 Pb1 Cl6'
_cell_volume   518.07754113
_cell_formula_units_Z   1
loop_
 _symmetry_equiv_pos_site_id
 _symmetry_equiv_pos_as_xyz
  1  'x, y, z'
loop_
 _atom_site_type_symbol
 _atom_site_label
 _atom_site_symmetry_multiplicity
 _atom_site_fract_x
 _atom_site_fract_y
 _atom_site_fract_z
 _atom_site_occupancy
  Ag  Ag0  1  0.25000000  0.25000000  0.25000000  1
  Pb  Pb1  1  0.75000000  0.75000000  0.75000000  1
  Cr  Cr2  1  0.00000000  0.00000000  0.00000000  1
  Cs  Cs3  1  0.50000000  0.50000000  0.50000000  1
  Cl  Cl4  1  0.75000000  0.75000000  0.25000000  1
  Cl  Cl5  1  0.25000000  0.25000000  0.75000000  1
  Cl  Cl6  1  0.75000000  0.25000000  0.75000000  1
  Cl  Cl7  1  0.25000000  0.75000000  0.25000000  1
  Cl  Cl8  1  0.25000000  0.75000000  0.75000000  1
  Cl  Cl9  1  0.75000000  0.25000000  0.25000000  1
