# generated using pymatgen
data_CsRbPmAgF6
_symmetry_space_group_name_H-M   'P 1'
_cell_length_a   7.79705414
_cell_length_b   7.79705417
_cell_length_c   7.79705400
_cell_angle_alpha   60.00000071
_cell_angle_beta   60.00000059
_cell_angle_gamma   59.99999806
_symmetry_Int_Tables_number   1
_chemical_formula_structural   CsRbPmAgF6
_chemical_formula_sum   'Cs1 Rb1 Pm1 Ag1 F6'
_cell_volume   335.17887829
_cell_formula_units_Z   1
loop_
 _symmetry_equiv_pos_site_id
 _symmetry_equiv_pos_as_xyz
  1  'x, y, z'
loop_
 _atom_site_type_symbol
 _atom_site_label
 _atom_site_symmetry_multiplicity
 _atom_site_fract_x
 _atom_site_fract_y
 _atom_site_fract_z
 _atom_site_occupancy
  Ag  Ag0  1  0.25000000  0.25000000  0.25000000  1
  Pm  Pm1  1  0.75000000  0.75000000  0.75000000  1
  Rb  Rb2  1  0.00000000  0.00000000  0.00000000  1
  Cs  Cs3  1  0.50000000  0.50000000  0.50000000  1
  F  F4  1  0.75000000  0.75000000  0.25000000  1
  F  F5  1  0.25000000  0.25000000  0.75000000  1
  F  F6  1  0.75000000  0.25000000  0.75000000  1
  F  F7  1  0.25000000  0.75000000  0.25000000  1
  F  F8  1  0.25000000  0.75000000  0.75000000  1
  F  F9  1  0.75000000  0.25000000  0.25000000  1
