# generated using pymatgen
data_SmCu2AgCl6
_symmetry_space_group_name_H-M   'P 1'
_cell_length_a   6.44685817
_cell_length_b   6.44685769
_cell_length_c   6.44685800
_cell_angle_alpha   59.99999843
_cell_angle_beta   60.00000088
_cell_angle_gamma   59.99999518
_symmetry_Int_Tables_number   1
_chemical_formula_structural   SmCu2AgCl6
_chemical_formula_sum   'Sm1 Cu2 Ag1 Cl6'
_cell_volume   189.46512835
_cell_formula_units_Z   1
loop_
 _symmetry_equiv_pos_site_id
 _symmetry_equiv_pos_as_xyz
  1  'x, y, z'
loop_
 _atom_site_type_symbol
 _atom_site_label
 _atom_site_symmetry_multiplicity
 _atom_site_fract_x
 _atom_site_fract_y
 _atom_site_fract_z
 _atom_site_occupancy
  Ag  Ag0  1  0.25000000  0.25000000  0.25000000  1
  Sm  Sm1  1  0.75000000  0.75000000  0.75000000  1
  Cu  Cu2  1  0.00000000  0.00000000  0.00000000  1
  Cu  Cu3  1  0.50000000  0.50000000  0.50000000  1
  Cl  Cl4  1  0.75000000  0.75000000  0.25000000  1
  Cl  Cl5  1  0.25000000  0.25000000  0.75000000  1
  Cl  Cl6  1  0.75000000  0.25000000  0.75000000  1
  Cl  Cl7  1  0.25000000  0.75000000  0.25000000  1
  Cl  Cl8  1  0.25000000  0.75000000  0.75000000  1
  Cl  Cl9  1  0.75000000  0.25000000  0.25000000  1
