# generated using pymatgen
data_LiAgSnPbBr6
_symmetry_space_group_name_H-M   'P 1'
_cell_length_a   8.20128462
_cell_length_b   8.20128460
_cell_length_c   8.20128400
_cell_angle_alpha   60.00000243
_cell_angle_beta   60.00000249
_cell_angle_gamma   60.00000160
_symmetry_Int_Tables_number   1
_chemical_formula_structural   LiAgSnPbBr6
_chemical_formula_sum   'Li1 Ag1 Sn1 Pb1 Br6'
_cell_volume   390.05930432
_cell_formula_units_Z   1
loop_
 _symmetry_equiv_pos_site_id
 _symmetry_equiv_pos_as_xyz
  1  'x, y, z'
loop_
 _atom_site_type_symbol
 _atom_site_label
 _atom_site_symmetry_multiplicity
 _atom_site_fract_x
 _atom_site_fract_y
 _atom_site_fract_z
 _atom_site_occupancy
  Ag  Ag0  1  0.25000000  0.25000000  0.25000000  1
  Sn  Sn1  1  0.75000000  0.75000000  0.75000000  1
  Li  Li2  1  0.00000000  0.00000000  0.00000000  1
  Pb  Pb3  1  0.50000000  0.50000000  0.50000000  1
  Br  Br4  1  0.75000000  0.75000000  0.25000000  1
  Br  Br5  1  0.25000000  0.25000000  0.75000000  1
  Br  Br6  1  0.75000000  0.25000000  0.75000000  1
  Br  Br7  1  0.25000000  0.75000000  0.25000000  1
  Br  Br8  1  0.25000000  0.75000000  0.75000000  1
  Br  Br9  1  0.75000000  0.25000000  0.25000000  1
