# generated using pymatgen
data_Mg2TlAgCl6
_symmetry_space_group_name_H-M   'P 1'
_cell_length_a   6.95438965
_cell_length_b   6.95439014
_cell_length_c   6.95439000
_cell_angle_alpha   60.00000069
_cell_angle_beta   59.99999832
_cell_angle_gamma   60.00000399
_symmetry_Int_Tables_number   1
_chemical_formula_structural   Mg2TlAgCl6
_chemical_formula_sum   'Mg2 Tl1 Ag1 Cl6'
_cell_volume   237.82752994
_cell_formula_units_Z   1
loop_
 _symmetry_equiv_pos_site_id
 _symmetry_equiv_pos_as_xyz
  1  'x, y, z'
loop_
 _atom_site_type_symbol
 _atom_site_label
 _atom_site_symmetry_multiplicity
 _atom_site_fract_x
 _atom_site_fract_y
 _atom_site_fract_z
 _atom_site_occupancy
  Ag  Ag0  1  0.25000000  0.25000000  0.25000000  1
  Tl  Tl1  1  0.75000000  0.75000000  0.75000000  1
  Mg  Mg2  1  0.00000000  0.00000000  0.00000000  1
  Mg  Mg3  1  0.50000000  0.50000000  0.50000000  1
  Cl  Cl4  1  0.75000000  0.75000000  0.25000000  1
  Cl  Cl5  1  0.25000000  0.25000000  0.75000000  1
  Cl  Cl6  1  0.75000000  0.25000000  0.75000000  1
  Cl  Cl7  1  0.25000000  0.75000000  0.25000000  1
  Cl  Cl8  1  0.25000000  0.75000000  0.75000000  1
  Cl  Cl9  1  0.75000000  0.25000000  0.25000000  1
