# generated using pymatgen
data_RbNa(BeBr3)2
_symmetry_space_group_name_H-M   'P 1'
_cell_length_a   9.05567200
_cell_length_b   9.05567254
_cell_length_c   9.05567200
_cell_angle_alpha   60.00000196
_cell_angle_beta   60.00000000
_cell_angle_gamma   60.00000407
_symmetry_Int_Tables_number   1
_chemical_formula_structural   RbNa(BeBr3)2
_chemical_formula_sum   'Rb1 Na1 Be2 Br6'
_cell_volume   525.10614312
_cell_formula_units_Z   1
loop_
 _symmetry_equiv_pos_site_id
 _symmetry_equiv_pos_as_xyz
  1  'x, y, z'
loop_
 _atom_site_type_symbol
 _atom_site_label
 _atom_site_symmetry_multiplicity
 _atom_site_fract_x
 _atom_site_fract_y
 _atom_site_fract_z
 _atom_site_occupancy
  Be  Be0  1  0.25000000  0.25000000  0.25000000  1
  Be  Be1  1  0.75000000  0.75000000  0.75000000  1
  Na  Na2  1  0.00000000  0.00000000  0.00000000  1
  Rb  Rb3  1  0.50000000  0.50000000  0.50000000  1
  Br  Br4  1  0.75000000  0.75000000  0.25000000  1
  Br  Br5  1  0.25000000  0.25000000  0.75000000  1
  Br  Br6  1  0.75000000  0.25000000  0.75000000  1
  Br  Br7  1  0.25000000  0.75000000  0.25000000  1
  Br  Br8  1  0.25000000  0.75000000  0.75000000  1
  Br  Br9  1  0.75000000  0.25000000  0.25000000  1
