# generated using pymatgen
data_RbNaCaBeCl6
_symmetry_space_group_name_H-M   'P 1'
_cell_length_a   8.66295020
_cell_length_b   8.66295070
_cell_length_c   8.66295100
_cell_angle_alpha   60.00000266
_cell_angle_beta   60.00000075
_cell_angle_gamma   60.00000461
_symmetry_Int_Tables_number   1
_chemical_formula_structural   RbNaCaBeCl6
_chemical_formula_sum   'Rb1 Na1 Ca1 Be1 Cl6'
_cell_volume   459.70851369
_cell_formula_units_Z   1
loop_
 _symmetry_equiv_pos_site_id
 _symmetry_equiv_pos_as_xyz
  1  'x, y, z'
loop_
 _atom_site_type_symbol
 _atom_site_label
 _atom_site_symmetry_multiplicity
 _atom_site_fract_x
 _atom_site_fract_y
 _atom_site_fract_z
 _atom_site_occupancy
  Be  Be0  1  0.25000000  0.25000000  0.25000000  1
  Ca  Ca1  1  0.75000000  0.75000000  0.75000000  1
  Na  Na2  1  0.00000000  0.00000000  0.00000000  1
  Rb  Rb3  1  0.50000000  0.50000000  0.50000000  1
  Cl  Cl4  1  0.75000000  0.75000000  0.25000000  1
  Cl  Cl5  1  0.25000000  0.25000000  0.75000000  1
  Cl  Cl6  1  0.75000000  0.25000000  0.75000000  1
  Cl  Cl7  1  0.25000000  0.75000000  0.25000000  1
  Cl  Cl8  1  0.25000000  0.75000000  0.75000000  1
  Cl  Cl9  1  0.75000000  0.25000000  0.25000000  1
