# generated using pymatgen
data_BeFeCuAuI6
_symmetry_space_group_name_H-M   'P 1'
_cell_length_a   7.97233197
_cell_length_b   7.97233214
_cell_length_c   7.97233200
_cell_angle_alpha   60.00000059
_cell_angle_beta   59.99999986
_cell_angle_gamma   60.00000064
_symmetry_Int_Tables_number   1
_chemical_formula_structural   BeFeCuAuI6
_chemical_formula_sum   'Be1 Fe1 Cu1 Au1 I6'
_cell_volume   358.29532389
_cell_formula_units_Z   1
loop_
 _symmetry_equiv_pos_site_id
 _symmetry_equiv_pos_as_xyz
  1  'x, y, z'
loop_
 _atom_site_type_symbol
 _atom_site_label
 _atom_site_symmetry_multiplicity
 _atom_site_fract_x
 _atom_site_fract_y
 _atom_site_fract_z
 _atom_site_occupancy
  Be  Be0  1  0.25000000  0.25000000  0.25000000  1
  Cu  Cu1  1  0.75000000  0.75000000  0.75000000  1
  Fe  Fe2  1  0.00000000  0.00000000  0.00000000  1
  Au  Au3  1  0.50000000  0.50000000  0.50000000  1
  I  I4  1  0.75000000  0.75000000  0.25000000  1
  I  I5  1  0.25000000  0.25000000  0.75000000  1
  I  I6  1  0.75000000  0.25000000  0.75000000  1
  I  I7  1  0.25000000  0.75000000  0.25000000  1
  I  I8  1  0.25000000  0.75000000  0.75000000  1
  I  I9  1  0.75000000  0.25000000  0.25000000  1
