# generated using pymatgen
data_Rb2BeHgI6
_symmetry_space_group_name_H-M   'P 1'
_cell_length_a   9.95121030
_cell_length_b   9.95121008
_cell_length_c   9.95121000
_cell_angle_alpha   60.00000027
_cell_angle_beta   60.00000098
_cell_angle_gamma   59.99999994
_symmetry_Int_Tables_number   1
_chemical_formula_structural   Rb2BeHgI6
_chemical_formula_sum   'Rb2 Be1 Hg1 I6'
_cell_volume   696.80730705
_cell_formula_units_Z   1
loop_
 _symmetry_equiv_pos_site_id
 _symmetry_equiv_pos_as_xyz
  1  'x, y, z'
loop_
 _atom_site_type_symbol
 _atom_site_label
 _atom_site_symmetry_multiplicity
 _atom_site_fract_x
 _atom_site_fract_y
 _atom_site_fract_z
 _atom_site_occupancy
  Be  Be0  1  0.25000000  0.25000000  0.25000000  1
  Hg  Hg1  1  0.75000000  0.75000000  0.75000000  1
  Rb  Rb2  1  0.00000000  0.00000000  0.00000000  1
  Rb  Rb3  1  0.50000000  0.50000000  0.50000000  1
  I  I4  1  0.75000000  0.75000000  0.25000000  1
  I  I5  1  0.25000000  0.25000000  0.75000000  1
  I  I6  1  0.75000000  0.25000000  0.75000000  1
  I  I7  1  0.25000000  0.75000000  0.25000000  1
  I  I8  1  0.25000000  0.75000000  0.75000000  1
  I  I9  1  0.75000000  0.25000000  0.25000000  1
