# generated using pymatgen
data_NaMgBeCuI6
_symmetry_space_group_name_H-M   'P 1'
_cell_length_a   7.79766973
_cell_length_b   7.79766996
_cell_length_c   7.79767000
_cell_angle_alpha   59.99999983
_cell_angle_beta   59.99999886
_cell_angle_gamma   60.00000266
_symmetry_Int_Tables_number   1
_chemical_formula_structural   NaMgBeCuI6
_chemical_formula_sum   'Na1 Mg1 Be1 Cu1 I6'
_cell_volume   335.25830478
_cell_formula_units_Z   1
loop_
 _symmetry_equiv_pos_site_id
 _symmetry_equiv_pos_as_xyz
  1  'x, y, z'
loop_
 _atom_site_type_symbol
 _atom_site_label
 _atom_site_symmetry_multiplicity
 _atom_site_fract_x
 _atom_site_fract_y
 _atom_site_fract_z
 _atom_site_occupancy
  Be  Be0  1  0.25000000  0.25000000  0.25000000  1
  Na  Na1  1  0.75000000  0.75000000  0.75000000  1
  Mg  Mg2  1  0.00000000  0.00000000  0.00000000  1
  Cu  Cu3  1  0.50000000  0.50000000  0.50000000  1
  I  I4  1  0.75000000  0.75000000  0.25000000  1
  I  I5  1  0.25000000  0.25000000  0.75000000  1
  I  I6  1  0.75000000  0.25000000  0.75000000  1
  I  I7  1  0.25000000  0.75000000  0.25000000  1
  I  I8  1  0.25000000  0.75000000  0.75000000  1
  I  I9  1  0.75000000  0.25000000  0.25000000  1
