# generated using pymatgen
data_NaSrBeAgCl6
_symmetry_space_group_name_H-M   'P 1'
_cell_length_a   7.94887553
_cell_length_b   7.94887516
_cell_length_c   7.94887500
_cell_angle_alpha   59.99999652
_cell_angle_beta   59.99999803
_cell_angle_gamma   59.99999478
_symmetry_Int_Tables_number   1
_chemical_formula_structural   NaSrBeAgCl6
_chemical_formula_sum   'Na1 Sr1 Be1 Ag1 Cl6'
_cell_volume   355.14197661
_cell_formula_units_Z   1
loop_
 _symmetry_equiv_pos_site_id
 _symmetry_equiv_pos_as_xyz
  1  'x, y, z'
loop_
 _atom_site_type_symbol
 _atom_site_label
 _atom_site_symmetry_multiplicity
 _atom_site_fract_x
 _atom_site_fract_y
 _atom_site_fract_z
 _atom_site_occupancy
  Be  Be0  1  0.25000000  0.25000000  0.25000000  1
  Na  Na1  1  0.75000000  0.75000000  0.75000000  1
  Sr  Sr2  1  0.00000000  0.00000000  0.00000000  1
  Ag  Ag3  1  0.50000000  0.50000000  0.50000000  1
  Cl  Cl4  1  0.75000000  0.75000000  0.25000000  1
  Cl  Cl5  1  0.25000000  0.25000000  0.75000000  1
  Cl  Cl6  1  0.75000000  0.25000000  0.75000000  1
  Cl  Cl7  1  0.25000000  0.75000000  0.25000000  1
  Cl  Cl8  1  0.25000000  0.75000000  0.75000000  1
  Cl  Cl9  1  0.75000000  0.25000000  0.25000000  1
