# generated using pymatgen
data_LiBeCuNiBr6
_symmetry_space_group_name_H-M   'P 1'
_cell_length_a   7.01904228
_cell_length_b   7.01904301
_cell_length_c   7.01904300
_cell_angle_alpha   60.00000478
_cell_angle_beta   60.00000130
_cell_angle_gamma   60.00000435
_symmetry_Int_Tables_number   1
_chemical_formula_structural   LiBeCuNiBr6
_chemical_formula_sum   'Li1 Be1 Cu1 Ni1 Br6'
_cell_volume   244.52242911
_cell_formula_units_Z   1
loop_
 _symmetry_equiv_pos_site_id
 _symmetry_equiv_pos_as_xyz
  1  'x, y, z'
loop_
 _atom_site_type_symbol
 _atom_site_label
 _atom_site_symmetry_multiplicity
 _atom_site_fract_x
 _atom_site_fract_y
 _atom_site_fract_z
 _atom_site_occupancy
  Be  Be0  1  0.25000000  0.25000000  0.25000000  1
  Ni  Ni1  1  0.75000000  0.75000000  0.75000000  1
  Li  Li2  1  0.00000000  0.00000000  0.00000000  1
  Cu  Cu3  1  0.50000000  0.50000000  0.50000000  1
  Br  Br4  1  0.75000000  0.75000000  0.25000000  1
  Br  Br5  1  0.25000000  0.25000000  0.75000000  1
  Br  Br6  1  0.75000000  0.25000000  0.75000000  1
  Br  Br7  1  0.25000000  0.75000000  0.25000000  1
  Br  Br8  1  0.25000000  0.75000000  0.75000000  1
  Br  Br9  1  0.75000000  0.25000000  0.25000000  1
