# generated using pymatgen
data_CsRbBeHgI6
_symmetry_space_group_name_H-M   'P 1'
_cell_length_a   10.09926384
_cell_length_b   10.09926346
_cell_length_c   10.09926300
_cell_angle_alpha   59.99999822
_cell_angle_beta   59.99999948
_cell_angle_gamma   60.00000029
_symmetry_Int_Tables_number   1
_chemical_formula_structural   CsRbBeHgI6
_chemical_formula_sum   'Cs1 Rb1 Be1 Hg1 I6'
_cell_volume   728.37343414
_cell_formula_units_Z   1
loop_
 _symmetry_equiv_pos_site_id
 _symmetry_equiv_pos_as_xyz
  1  'x, y, z'
loop_
 _atom_site_type_symbol
 _atom_site_label
 _atom_site_symmetry_multiplicity
 _atom_site_fract_x
 _atom_site_fract_y
 _atom_site_fract_z
 _atom_site_occupancy
  Be  Be0  1  0.25000000  0.25000000  0.25000000  1
  Rb  Rb1  1  0.75000000  0.75000000  0.75000000  1
  Cs  Cs2  1  0.00000000  0.00000000  0.00000000  1
  Hg  Hg3  1  0.50000000  0.50000000  0.50000000  1
  I  I4  1  0.75000000  0.75000000  0.25000000  1
  I  I5  1  0.25000000  0.25000000  0.75000000  1
  I  I6  1  0.75000000  0.25000000  0.75000000  1
  I  I7  1  0.25000000  0.75000000  0.25000000  1
  I  I8  1  0.25000000  0.75000000  0.75000000  1
  I  I9  1  0.75000000  0.25000000  0.25000000  1
