# generated using pymatgen
data_BeSn(AuI3)2
_symmetry_space_group_name_H-M   'P 1'
_cell_length_a   7.94039767
_cell_length_b   7.94039720
_cell_length_c   7.94039700
_cell_angle_alpha   59.99999666
_cell_angle_beta   59.99999861
_cell_angle_gamma   59.99999953
_symmetry_Int_Tables_number   1
_chemical_formula_structural   BeSn(AuI3)2
_chemical_formula_sum   'Be1 Sn1 Au2 I6'
_cell_volume   354.00686357
_cell_formula_units_Z   1
loop_
 _symmetry_equiv_pos_site_id
 _symmetry_equiv_pos_as_xyz
  1  'x, y, z'
loop_
 _atom_site_type_symbol
 _atom_site_label
 _atom_site_symmetry_multiplicity
 _atom_site_fract_x
 _atom_site_fract_y
 _atom_site_fract_z
 _atom_site_occupancy
  Be  Be0  1  0.25000000  0.25000000  0.25000000  1
  Sn  Sn1  1  0.75000000  0.75000000  0.75000000  1
  Au  Au2  1  0.00000000  0.00000000  0.00000000  1
  Au  Au3  1  0.50000000  0.50000000  0.50000000  1
  I  I4  1  0.75000000  0.75000000  0.25000000  1
  I  I5  1  0.25000000  0.25000000  0.75000000  1
  I  I6  1  0.75000000  0.25000000  0.75000000  1
  I  I7  1  0.25000000  0.75000000  0.25000000  1
  I  I8  1  0.25000000  0.75000000  0.75000000  1
  I  I9  1  0.75000000  0.25000000  0.25000000  1
