# generated using pymatgen
data_BaNaLiCaI6
_symmetry_space_group_name_H-M   'P 1'
_cell_length_a   8.19931741
_cell_length_b   8.19931784
_cell_length_c   8.19931700
_cell_angle_alpha   59.99999936
_cell_angle_beta   59.99999762
_cell_angle_gamma   60.00000016
_symmetry_Int_Tables_number   1
_chemical_formula_structural   BaNaLiCaI6
_chemical_formula_sum   'Ba1 Na1 Li1 Ca1 I6'
_cell_volume   389.77868946
_cell_formula_units_Z   1
loop_
 _symmetry_equiv_pos_site_id
 _symmetry_equiv_pos_as_xyz
  1  'x, y, z'
loop_
 _atom_site_type_symbol
 _atom_site_label
 _atom_site_symmetry_multiplicity
 _atom_site_fract_x
 _atom_site_fract_y
 _atom_site_fract_z
 _atom_site_occupancy
  Ca  Ca0  1  0.25000000  0.25000000  0.25000000  1
  Ba  Ba1  1  0.75000000  0.75000000  0.75000000  1
  Li  Li2  1  0.00000000  0.00000000  0.00000000  1
  Na  Na3  1  0.50000000  0.50000000  0.50000000  1
  I  I4  1  0.75000000  0.75000000  0.25000000  1
  I  I5  1  0.25000000  0.25000000  0.75000000  1
  I  I6  1  0.75000000  0.25000000  0.75000000  1
  I  I7  1  0.25000000  0.75000000  0.25000000  1
  I  I8  1  0.25000000  0.75000000  0.75000000  1
  I  I9  1  0.75000000  0.25000000  0.25000000  1
