# generated using pymatgen
data_CsRbCaPtF6
_symmetry_space_group_name_H-M   'P 1'
_cell_length_a   7.10254080
_cell_length_b   7.10254039
_cell_length_c   7.10254100
_cell_angle_alpha   60.00000184
_cell_angle_beta   60.00000375
_cell_angle_gamma   60.00000059
_symmetry_Int_Tables_number   1
_chemical_formula_structural   CsRbCaPtF6
_chemical_formula_sum   'Cs1 Rb1 Ca1 Pt1 F6'
_cell_volume   253.35309943
_cell_formula_units_Z   1
loop_
 _symmetry_equiv_pos_site_id
 _symmetry_equiv_pos_as_xyz
  1  'x, y, z'
loop_
 _atom_site_type_symbol
 _atom_site_label
 _atom_site_symmetry_multiplicity
 _atom_site_fract_x
 _atom_site_fract_y
 _atom_site_fract_z
 _atom_site_occupancy
  Ca  Ca0  1  0.25000000  0.25000000  0.25000000  1
  Cs  Cs1  1  0.75000000  0.75000000  0.75000000  1
  Rb  Rb2  1  0.00000000  0.00000000  0.00000000  1
  Pt  Pt3  1  0.50000000  0.50000000  0.50000000  1
  F  F4  1  0.75000000  0.75000000  0.25000000  1
  F  F5  1  0.25000000  0.25000000  0.75000000  1
  F  F6  1  0.75000000  0.25000000  0.75000000  1
  F  F7  1  0.25000000  0.75000000  0.25000000  1
  F  F8  1  0.25000000  0.75000000  0.75000000  1
  F  F9  1  0.75000000  0.25000000  0.25000000  1
