# generated using pymatgen
data_CaTiCuHgCl6
_symmetry_space_group_name_H-M   'P 1'
_cell_length_a   7.64237038
_cell_length_b   7.64237078
_cell_length_c   7.64237100
_cell_angle_alpha   60.00000339
_cell_angle_beta   60.00000163
_cell_angle_gamma   60.00000534
_symmetry_Int_Tables_number   1
_chemical_formula_structural   CaTiCuHgCl6
_chemical_formula_sum   'Ca1 Ti1 Cu1 Hg1 Cl6'
_cell_volume   315.62350520
_cell_formula_units_Z   1
loop_
 _symmetry_equiv_pos_site_id
 _symmetry_equiv_pos_as_xyz
  1  'x, y, z'
loop_
 _atom_site_type_symbol
 _atom_site_label
 _atom_site_symmetry_multiplicity
 _atom_site_fract_x
 _atom_site_fract_y
 _atom_site_fract_z
 _atom_site_occupancy
  Ca  Ca0  1  0.25000000  0.25000000  0.25000000  1
  Cu  Cu1  1  0.75000000  0.75000000  0.75000000  1
  Ti  Ti2  1  0.00000000  0.00000000  0.00000000  1
  Hg  Hg3  1  0.50000000  0.50000000  0.50000000  1
  Cl  Cl4  1  0.75000000  0.75000000  0.25000000  1
  Cl  Cl5  1  0.25000000  0.25000000  0.75000000  1
  Cl  Cl6  1  0.75000000  0.25000000  0.75000000  1
  Cl  Cl7  1  0.25000000  0.75000000  0.25000000  1
  Cl  Cl8  1  0.25000000  0.75000000  0.75000000  1
  Cl  Cl9  1  0.75000000  0.25000000  0.25000000  1
