# generated using pymatgen
data_CaMn(HgCl3)2
_symmetry_space_group_name_H-M   'P 1'
_cell_length_a   7.78482593
_cell_length_b   7.78482624
_cell_length_c   7.78482600
_cell_angle_alpha   60.00000103
_cell_angle_beta   59.99999971
_cell_angle_gamma   59.99999867
_symmetry_Int_Tables_number   1
_chemical_formula_structural   CaMn(HgCl3)2
_chemical_formula_sum   'Ca1 Mn1 Hg2 Cl6'
_cell_volume   333.60437686
_cell_formula_units_Z   1
loop_
 _symmetry_equiv_pos_site_id
 _symmetry_equiv_pos_as_xyz
  1  'x, y, z'
loop_
 _atom_site_type_symbol
 _atom_site_label
 _atom_site_symmetry_multiplicity
 _atom_site_fract_x
 _atom_site_fract_y
 _atom_site_fract_z
 _atom_site_occupancy
  Ca  Ca0  1  0.25000000  0.25000000  0.25000000  1
  Mn  Mn1  1  0.75000000  0.75000000  0.75000000  1
  Hg  Hg2  1  0.00000000  0.00000000  0.00000000  1
  Hg  Hg3  1  0.50000000  0.50000000  0.50000000  1
  Cl  Cl4  1  0.75000000  0.75000000  0.25000000  1
  Cl  Cl5  1  0.25000000  0.25000000  0.75000000  1
  Cl  Cl6  1  0.75000000  0.25000000  0.75000000  1
  Cl  Cl7  1  0.25000000  0.75000000  0.25000000  1
  Cl  Cl8  1  0.25000000  0.75000000  0.75000000  1
  Cl  Cl9  1  0.75000000  0.25000000  0.25000000  1
