# generated using pymatgen
data_CaMnTlAgCl6
_symmetry_space_group_name_H-M   'P 1'
_cell_length_a   8.36739557
_cell_length_b   8.36739577
_cell_length_c   8.36739600
_cell_angle_alpha   59.99999908
_cell_angle_beta   59.99999829
_cell_angle_gamma   59.99999965
_symmetry_Int_Tables_number   1
_chemical_formula_structural   CaMnTlAgCl6
_chemical_formula_sum   'Ca1 Mn1 Tl1 Ag1 Cl6'
_cell_volume   414.24371441
_cell_formula_units_Z   1
loop_
 _symmetry_equiv_pos_site_id
 _symmetry_equiv_pos_as_xyz
  1  'x, y, z'
loop_
 _atom_site_type_symbol
 _atom_site_label
 _atom_site_symmetry_multiplicity
 _atom_site_fract_x
 _atom_site_fract_y
 _atom_site_fract_z
 _atom_site_occupancy
  Ca  Ca0  1  0.25000000  0.25000000  0.25000000  1
  Mn  Mn1  1  0.75000000  0.75000000  0.75000000  1
  Ag  Ag2  1  0.00000000  0.00000000  0.00000000  1
  Tl  Tl3  1  0.50000000  0.50000000  0.50000000  1
  Cl  Cl4  1  0.75000000  0.75000000  0.25000000  1
  Cl  Cl5  1  0.25000000  0.25000000  0.75000000  1
  Cl  Cl6  1  0.75000000  0.25000000  0.75000000  1
  Cl  Cl7  1  0.25000000  0.75000000  0.25000000  1
  Cl  Cl8  1  0.25000000  0.75000000  0.75000000  1
  Cl  Cl9  1  0.75000000  0.25000000  0.25000000  1
