# generated using pymatgen
data_CsCaTiHgCl6
_symmetry_space_group_name_H-M   'P 1'
_cell_length_a   9.06009661
_cell_length_b   9.06009665
_cell_length_c   9.06009700
_cell_angle_alpha   60.00000237
_cell_angle_beta   60.00000222
_cell_angle_gamma   59.99999952
_symmetry_Int_Tables_number   1
_chemical_formula_structural   CsCaTiHgCl6
_chemical_formula_sum   'Cs1 Ca1 Ti1 Hg1 Cl6'
_cell_volume   525.87620745
_cell_formula_units_Z   1
loop_
 _symmetry_equiv_pos_site_id
 _symmetry_equiv_pos_as_xyz
  1  'x, y, z'
loop_
 _atom_site_type_symbol
 _atom_site_label
 _atom_site_symmetry_multiplicity
 _atom_site_fract_x
 _atom_site_fract_y
 _atom_site_fract_z
 _atom_site_occupancy
  Ca  Ca0  1  0.25000000  0.25000000  0.25000000  1
  Ti  Ti1  1  0.75000000  0.75000000  0.75000000  1
  Cs  Cs2  1  0.00000000  0.00000000  0.00000000  1
  Hg  Hg3  1  0.50000000  0.50000000  0.50000000  1
  Cl  Cl4  1  0.75000000  0.75000000  0.25000000  1
  Cl  Cl5  1  0.25000000  0.25000000  0.75000000  1
  Cl  Cl6  1  0.75000000  0.25000000  0.75000000  1
  Cl  Cl7  1  0.25000000  0.75000000  0.25000000  1
  Cl  Cl8  1  0.25000000  0.75000000  0.75000000  1
  Cl  Cl9  1  0.75000000  0.25000000  0.25000000  1
