# generated using pymatgen
data_Cs2CdPtCl6
_symmetry_space_group_name_H-M   'P 1'
_cell_length_a   9.33159000
_cell_length_b   9.33158973
_cell_length_c   9.33159000
_cell_angle_alpha   59.99999905
_cell_angle_beta   60.00000001
_cell_angle_gamma   59.99999904
_symmetry_Int_Tables_number   1
_chemical_formula_structural   Cs2CdPtCl6
_chemical_formula_sum   'Cs2 Cd1 Pt1 Cl6'
_cell_volume   574.58188616
_cell_formula_units_Z   1
loop_
 _symmetry_equiv_pos_site_id
 _symmetry_equiv_pos_as_xyz
  1  'x, y, z'
loop_
 _atom_site_type_symbol
 _atom_site_label
 _atom_site_symmetry_multiplicity
 _atom_site_fract_x
 _atom_site_fract_y
 _atom_site_fract_z
 _atom_site_occupancy
  Cd  Cd0  1  0.25000000  0.25000000  0.25000000  1
  Pt  Pt1  1  0.75000000  0.75000000  0.75000000  1
  Cs  Cs2  1  0.00000000  0.00000000  0.00000000  1
  Cs  Cs3  1  0.50000000  0.50000000  0.50000000  1
  Cl  Cl4  1  0.75000000  0.75000000  0.25000000  1
  Cl  Cl5  1  0.25000000  0.25000000  0.75000000  1
  Cl  Cl6  1  0.75000000  0.25000000  0.75000000  1
  Cl  Cl7  1  0.25000000  0.75000000  0.25000000  1
  Cl  Cl8  1  0.25000000  0.75000000  0.75000000  1
  Cl  Cl9  1  0.75000000  0.25000000  0.25000000  1
