# generated using pymatgen
data_RbMnTlCdBr6
_symmetry_space_group_name_H-M   'P 1'
_cell_length_a   8.91051358
_cell_length_b   8.91051387
_cell_length_c   8.91051400
_cell_angle_alpha   59.99999953
_cell_angle_beta   59.99999844
_cell_angle_gamma   59.99999791
_symmetry_Int_Tables_number   1
_chemical_formula_structural   RbMnTlCdBr6
_chemical_formula_sum   'Rb1 Mn1 Tl1 Cd1 Br6'
_cell_volume   500.25706722
_cell_formula_units_Z   1
loop_
 _symmetry_equiv_pos_site_id
 _symmetry_equiv_pos_as_xyz
  1  'x, y, z'
loop_
 _atom_site_type_symbol
 _atom_site_label
 _atom_site_symmetry_multiplicity
 _atom_site_fract_x
 _atom_site_fract_y
 _atom_site_fract_z
 _atom_site_occupancy
  Cd  Cd0  1  0.25000000  0.25000000  0.25000000  1
  Tl  Tl1  1  0.75000000  0.75000000  0.75000000  1
  Mn  Mn2  1  0.00000000  0.00000000  0.00000000  1
  Rb  Rb3  1  0.50000000  0.50000000  0.50000000  1
  Br  Br4  1  0.75000000  0.75000000  0.25000000  1
  Br  Br5  1  0.25000000  0.25000000  0.75000000  1
  Br  Br6  1  0.75000000  0.25000000  0.75000000  1
  Br  Br7  1  0.25000000  0.75000000  0.25000000  1
  Br  Br8  1  0.25000000  0.75000000  0.75000000  1
  Br  Br9  1  0.75000000  0.25000000  0.25000000  1
