# generated using pymatgen
data_NaLiCoHgF6
_symmetry_space_group_name_H-M   'P 1'
_cell_length_a   5.80560662
_cell_length_b   5.80560642
_cell_length_c   5.80560600
_cell_angle_alpha   60.00000241
_cell_angle_beta   60.00000355
_cell_angle_gamma   60.00000451
_symmetry_Int_Tables_number   1
_chemical_formula_structural   NaLiCoHgF6
_chemical_formula_sum   'Na1 Li1 Co1 Hg1 F6'
_cell_volume   138.36549195
_cell_formula_units_Z   1
loop_
 _symmetry_equiv_pos_site_id
 _symmetry_equiv_pos_as_xyz
  1  'x, y, z'
loop_
 _atom_site_type_symbol
 _atom_site_label
 _atom_site_symmetry_multiplicity
 _atom_site_fract_x
 _atom_site_fract_y
 _atom_site_fract_z
 _atom_site_occupancy
  Co  Co0  1  0.25000000  0.25000000  0.25000000  1
  Hg  Hg1  1  0.75000000  0.75000000  0.75000000  1
  Li  Li2  1  0.00000000  0.00000000  0.00000000  1
  Na  Na3  1  0.50000000  0.50000000  0.50000000  1
  F  F4  1  0.75000000  0.75000000  0.25000000  1
  F  F5  1  0.25000000  0.25000000  0.75000000  1
  F  F6  1  0.75000000  0.25000000  0.75000000  1
  F  F7  1  0.25000000  0.75000000  0.25000000  1
  F  F8  1  0.25000000  0.75000000  0.75000000  1
  F  F9  1  0.75000000  0.25000000  0.25000000  1
