# generated using pymatgen
data_RbBeCoAgCl6
_symmetry_space_group_name_H-M   'P 1'
_cell_length_a   6.98991169
_cell_length_b   6.98991104
_cell_length_c   6.98991100
_cell_angle_alpha   59.99999546
_cell_angle_beta   59.99999852
_cell_angle_gamma   59.99999323
_symmetry_Int_Tables_number   1
_chemical_formula_structural   RbBeCoAgCl6
_chemical_formula_sum   'Rb1 Be1 Co1 Ag1 Cl6'
_cell_volume   241.49044045
_cell_formula_units_Z   1
loop_
 _symmetry_equiv_pos_site_id
 _symmetry_equiv_pos_as_xyz
  1  'x, y, z'
loop_
 _atom_site_type_symbol
 _atom_site_label
 _atom_site_symmetry_multiplicity
 _atom_site_fract_x
 _atom_site_fract_y
 _atom_site_fract_z
 _atom_site_occupancy
  Co  Co0  1  0.25000000  0.25000000  0.25000000  1
  Rb  Rb1  1  0.75000000  0.75000000  0.75000000  1
  Be  Be2  1  0.00000000  0.00000000  0.00000000  1
  Ag  Ag3  1  0.50000000  0.50000000  0.50000000  1
  Cl  Cl4  1  0.75000000  0.75000000  0.25000000  1
  Cl  Cl5  1  0.25000000  0.25000000  0.75000000  1
  Cl  Cl6  1  0.75000000  0.25000000  0.75000000  1
  Cl  Cl7  1  0.25000000  0.75000000  0.25000000  1
  Cl  Cl8  1  0.25000000  0.75000000  0.75000000  1
  Cl  Cl9  1  0.75000000  0.25000000  0.25000000  1
