# generated using pymatgen
data_CsTl(CrCl3)2
_symmetry_space_group_name_H-M   'P 1'
_cell_length_a   9.12097966
_cell_length_b   9.12097998
_cell_length_c   9.12098000
_cell_angle_alpha   59.99999991
_cell_angle_beta   59.99999878
_cell_angle_gamma   60.00000032
_symmetry_Int_Tables_number   1
_chemical_formula_structural   CsTl(CrCl3)2
_chemical_formula_sum   'Cs1 Tl1 Cr2 Cl6'
_cell_volume   536.54912634
_cell_formula_units_Z   1
loop_
 _symmetry_equiv_pos_site_id
 _symmetry_equiv_pos_as_xyz
  1  'x, y, z'
loop_
 _atom_site_type_symbol
 _atom_site_label
 _atom_site_symmetry_multiplicity
 _atom_site_fract_x
 _atom_site_fract_y
 _atom_site_fract_z
 _atom_site_occupancy
  Cr  Cr0  1  0.25000000  0.25000000  0.25000000  1
  Cr  Cr1  1  0.75000000  0.75000000  0.75000000  1
  Cs  Cs2  1  0.00000000  0.00000000  0.00000000  1
  Tl  Tl3  1  0.50000000  0.50000000  0.50000000  1
  Cl  Cl4  1  0.75000000  0.75000000  0.25000000  1
  Cl  Cl5  1  0.25000000  0.25000000  0.75000000  1
  Cl  Cl6  1  0.75000000  0.25000000  0.75000000  1
  Cl  Cl7  1  0.25000000  0.75000000  0.25000000  1
  Cl  Cl8  1  0.25000000  0.75000000  0.75000000  1
  Cl  Cl9  1  0.75000000  0.25000000  0.25000000  1
