# generated using pymatgen
data_BaCrAgAuCl6
_symmetry_space_group_name_H-M   'P 1'
_cell_length_a   7.08537324
_cell_length_b   7.08537339
_cell_length_c   7.08537300
_cell_angle_alpha   59.99999714
_cell_angle_beta   59.99999644
_cell_angle_gamma   59.99999833
_symmetry_Int_Tables_number   1
_chemical_formula_structural   BaCrAgAuCl6
_chemical_formula_sum   'Ba1 Cr1 Ag1 Au1 Cl6'
_cell_volume   251.52037286
_cell_formula_units_Z   1
loop_
 _symmetry_equiv_pos_site_id
 _symmetry_equiv_pos_as_xyz
  1  'x, y, z'
loop_
 _atom_site_type_symbol
 _atom_site_label
 _atom_site_symmetry_multiplicity
 _atom_site_fract_x
 _atom_site_fract_y
 _atom_site_fract_z
 _atom_site_occupancy
  Cr  Cr0  1  0.25000000  0.25000000  0.25000000  1
  Ba  Ba1  1  0.75000000  0.75000000  0.75000000  1
  Ag  Ag2  1  0.00000000  0.00000000  0.00000000  1
  Au  Au3  1  0.50000000  0.50000000  0.50000000  1
  Cl  Cl4  1  0.75000000  0.75000000  0.25000000  1
  Cl  Cl5  1  0.25000000  0.25000000  0.75000000  1
  Cl  Cl6  1  0.75000000  0.25000000  0.75000000  1
  Cl  Cl7  1  0.25000000  0.75000000  0.25000000  1
  Cl  Cl8  1  0.25000000  0.75000000  0.75000000  1
  Cl  Cl9  1  0.75000000  0.25000000  0.25000000  1
