# generated using pymatgen
data_CsNa2CrBr6
_symmetry_space_group_name_H-M   'P 1'
_cell_length_a   7.94179679
_cell_length_b   7.94179658
_cell_length_c   7.94179700
_cell_angle_alpha   60.00000241
_cell_angle_beta   60.00000329
_cell_angle_gamma   60.00000372
_symmetry_Int_Tables_number   1
_chemical_formula_structural   CsNa2CrBr6
_chemical_formula_sum   'Cs1 Na2 Cr1 Br6'
_cell_volume   354.19411763
_cell_formula_units_Z   1
loop_
 _symmetry_equiv_pos_site_id
 _symmetry_equiv_pos_as_xyz
  1  'x, y, z'
loop_
 _atom_site_type_symbol
 _atom_site_label
 _atom_site_symmetry_multiplicity
 _atom_site_fract_x
 _atom_site_fract_y
 _atom_site_fract_z
 _atom_site_occupancy
  Cr  Cr0  1  0.25000000  0.25000000  0.25000000  1
  Cs  Cs1  1  0.75000000  0.75000000  0.75000000  1
  Na  Na2  1  0.00000000  0.00000000  0.00000000  1
  Na  Na3  1  0.50000000  0.50000000  0.50000000  1
  Br  Br4  1  0.75000000  0.75000000  0.25000000  1
  Br  Br5  1  0.25000000  0.25000000  0.75000000  1
  Br  Br6  1  0.75000000  0.25000000  0.75000000  1
  Br  Br7  1  0.25000000  0.75000000  0.25000000  1
  Br  Br8  1  0.25000000  0.75000000  0.75000000  1
  Br  Br9  1  0.75000000  0.25000000  0.25000000  1
