# generated using pymatgen
data_NaLiEuCrI6
_symmetry_space_group_name_H-M   'P 1'
_cell_length_a   8.25491107
_cell_length_b   8.25491120
_cell_length_c   8.25491100
_cell_angle_alpha   60.00000482
_cell_angle_beta   60.00000428
_cell_angle_gamma   60.00000108
_symmetry_Int_Tables_number   1
_chemical_formula_structural   NaLiEuCrI6
_chemical_formula_sum   'Na1 Li1 Eu1 Cr1 I6'
_cell_volume   397.76103379
_cell_formula_units_Z   1
loop_
 _symmetry_equiv_pos_site_id
 _symmetry_equiv_pos_as_xyz
  1  'x, y, z'
loop_
 _atom_site_type_symbol
 _atom_site_label
 _atom_site_symmetry_multiplicity
 _atom_site_fract_x
 _atom_site_fract_y
 _atom_site_fract_z
 _atom_site_occupancy
  Cr  Cr0  1  0.25000000  0.25000000  0.25000000  1
  Eu  Eu1  1  0.75000000  0.75000000  0.75000000  1
  Li  Li2  1  0.00000000  0.00000000  0.00000000  1
  Na  Na3  1  0.50000000  0.50000000  0.50000000  1
  I  I4  1  0.75000000  0.75000000  0.25000000  1
  I  I5  1  0.25000000  0.25000000  0.75000000  1
  I  I6  1  0.75000000  0.25000000  0.75000000  1
  I  I7  1  0.25000000  0.75000000  0.25000000  1
  I  I8  1  0.25000000  0.75000000  0.75000000  1
  I  I9  1  0.75000000  0.25000000  0.25000000  1
