# generated using pymatgen
data_CrFe(CuBr3)2
_symmetry_space_group_name_H-M   'P 1'
_cell_length_a   6.98531677
_cell_length_b   6.98531629
_cell_length_c   6.98531700
_cell_angle_alpha   60.00000138
_cell_angle_beta   60.00000365
_cell_angle_gamma   60.00000289
_symmetry_Int_Tables_number   1
_chemical_formula_structural   CrFe(CuBr3)2
_chemical_formula_sum   'Cr1 Fe1 Cu2 Br6'
_cell_volume   241.01458716
_cell_formula_units_Z   1
loop_
 _symmetry_equiv_pos_site_id
 _symmetry_equiv_pos_as_xyz
  1  'x, y, z'
loop_
 _atom_site_type_symbol
 _atom_site_label
 _atom_site_symmetry_multiplicity
 _atom_site_fract_x
 _atom_site_fract_y
 _atom_site_fract_z
 _atom_site_occupancy
  Cr  Cr0  1  0.25000000  0.25000000  0.25000000  1
  Fe  Fe1  1  0.75000000  0.75000000  0.75000000  1
  Cu  Cu2  1  0.00000000  0.00000000  0.00000000  1
  Cu  Cu3  1  0.50000000  0.50000000  0.50000000  1
  Br  Br4  1  0.75000000  0.75000000  0.25000000  1
  Br  Br5  1  0.25000000  0.25000000  0.75000000  1
  Br  Br6  1  0.75000000  0.25000000  0.75000000  1
  Br  Br7  1  0.25000000  0.75000000  0.25000000  1
  Br  Br8  1  0.25000000  0.75000000  0.75000000  1
  Br  Br9  1  0.75000000  0.25000000  0.25000000  1
