# generated using pymatgen
data_Li2CrPtF6
_symmetry_space_group_name_H-M   'P 1'
_cell_length_a   5.11165604
_cell_length_b   5.11165548
_cell_length_c   5.11165600
_cell_angle_alpha   59.99999661
_cell_angle_beta   60.00000027
_cell_angle_gamma   59.99999652
_symmetry_Int_Tables_number   1
_chemical_formula_structural   Li2CrPtF6
_chemical_formula_sum   'Li2 Cr1 Pt1 F6'
_cell_volume   94.44300513
_cell_formula_units_Z   1
loop_
 _symmetry_equiv_pos_site_id
 _symmetry_equiv_pos_as_xyz
  1  'x, y, z'
loop_
 _atom_site_type_symbol
 _atom_site_label
 _atom_site_symmetry_multiplicity
 _atom_site_fract_x
 _atom_site_fract_y
 _atom_site_fract_z
 _atom_site_occupancy
  Cr  Cr0  1  0.25000000  0.25000000  0.25000000  1
  Pt  Pt1  1  0.75000000  0.75000000  0.75000000  1
  Li  Li2  1  0.00000000  0.00000000  0.00000000  1
  Li  Li3  1  0.50000000  0.50000000  0.50000000  1
  F  F4  1  0.75000000  0.75000000  0.25000000  1
  F  F5  1  0.25000000  0.25000000  0.75000000  1
  F  F6  1  0.75000000  0.25000000  0.75000000  1
  F  F7  1  0.25000000  0.75000000  0.25000000  1
  F  F8  1  0.25000000  0.75000000  0.75000000  1
  F  F9  1  0.75000000  0.25000000  0.25000000  1
