# generated using pymatgen
data_RbSrCrCuI6
_symmetry_space_group_name_H-M   'P 1'
_cell_length_a   8.95310579
_cell_length_b   8.95310644
_cell_length_c   8.95310600
_cell_angle_alpha   60.00000161
_cell_angle_beta   59.99999924
_cell_angle_gamma   60.00000187
_symmetry_Int_Tables_number   1
_chemical_formula_structural   RbSrCrCuI6
_chemical_formula_sum   'Rb1 Sr1 Cr1 Cu1 I6'
_cell_volume   507.46512504
_cell_formula_units_Z   1
loop_
 _symmetry_equiv_pos_site_id
 _symmetry_equiv_pos_as_xyz
  1  'x, y, z'
loop_
 _atom_site_type_symbol
 _atom_site_label
 _atom_site_symmetry_multiplicity
 _atom_site_fract_x
 _atom_site_fract_y
 _atom_site_fract_z
 _atom_site_occupancy
  Cr  Cr0  1  0.25000000  0.25000000  0.25000000  1
  Rb  Rb1  1  0.75000000  0.75000000  0.75000000  1
  Cu  Cu2  1  0.00000000  0.00000000  0.00000000  1
  Sr  Sr3  1  0.50000000  0.50000000  0.50000000  1
  I  I4  1  0.75000000  0.75000000  0.25000000  1
  I  I5  1  0.25000000  0.25000000  0.75000000  1
  I  I6  1  0.75000000  0.25000000  0.75000000  1
  I  I7  1  0.25000000  0.75000000  0.25000000  1
  I  I8  1  0.25000000  0.75000000  0.75000000  1
  I  I9  1  0.75000000  0.25000000  0.25000000  1
