# generated using pymatgen
data_CsPb2AuI6
_symmetry_space_group_name_H-M   'P 1'
_cell_length_a   8.79321785
_cell_length_b   8.79321753
_cell_length_c   8.79321800
_cell_angle_alpha   59.99999825
_cell_angle_beta   59.99999945
_cell_angle_gamma   60.00000060
_symmetry_Int_Tables_number   1
_chemical_formula_structural   CsPb2AuI6
_chemical_formula_sum   'Cs1 Pb2 Au1 I6'
_cell_volume   480.76017780
_cell_formula_units_Z   1
loop_
 _symmetry_equiv_pos_site_id
 _symmetry_equiv_pos_as_xyz
  1  'x, y, z'
loop_
 _atom_site_type_symbol
 _atom_site_label
 _atom_site_symmetry_multiplicity
 _atom_site_fract_x
 _atom_site_fract_y
 _atom_site_fract_z
 _atom_site_occupancy
  Cs  Cs0  1  0.25000000  0.25000000  0.25000000  1
  Au  Au1  1  0.75000000  0.75000000  0.75000000  1
  Pb  Pb2  1  0.00000000  0.00000000  0.00000000  1
  Pb  Pb3  1  0.50000000  0.50000000  0.50000000  1
  I  I4  1  0.75000000  0.75000000  0.25000000  1
  I  I5  1  0.25000000  0.25000000  0.75000000  1
  I  I6  1  0.75000000  0.25000000  0.75000000  1
  I  I7  1  0.25000000  0.75000000  0.25000000  1
  I  I8  1  0.25000000  0.75000000  0.75000000  1
  I  I9  1  0.75000000  0.25000000  0.25000000  1
