# generated using pymatgen
data_CsBaNaSnI6
_symmetry_space_group_name_H-M   'P 1'
_cell_length_a   8.67726531
_cell_length_b   8.67726519
_cell_length_c   8.67726500
_cell_angle_alpha   59.99999690
_cell_angle_beta   59.99999739
_cell_angle_gamma   59.99999557
_symmetry_Int_Tables_number   1
_chemical_formula_structural   CsBaNaSnI6
_chemical_formula_sum   'Cs1 Ba1 Na1 Sn1 I6'
_cell_volume   461.99106514
_cell_formula_units_Z   1
loop_
 _symmetry_equiv_pos_site_id
 _symmetry_equiv_pos_as_xyz
  1  'x, y, z'
loop_
 _atom_site_type_symbol
 _atom_site_label
 _atom_site_symmetry_multiplicity
 _atom_site_fract_x
 _atom_site_fract_y
 _atom_site_fract_z
 _atom_site_occupancy
  Cs  Cs0  1  0.25000000  0.25000000  0.25000000  1
  Ba  Ba1  1  0.75000000  0.75000000  0.75000000  1
  Na  Na2  1  0.00000000  0.00000000  0.00000000  1
  Sn  Sn3  1  0.50000000  0.50000000  0.50000000  1
  I  I4  1  0.75000000  0.75000000  0.25000000  1
  I  I5  1  0.25000000  0.25000000  0.75000000  1
  I  I6  1  0.75000000  0.25000000  0.75000000  1
  I  I7  1  0.25000000  0.75000000  0.25000000  1
  I  I8  1  0.25000000  0.75000000  0.75000000  1
  I  I9  1  0.75000000  0.25000000  0.25000000  1
