# generated using pymatgen
data_CsRbLiCeF6
_symmetry_space_group_name_H-M   'P 1'
_cell_length_a   7.12159459
_cell_length_b   7.12159466
_cell_length_c   7.12159500
_cell_angle_alpha   60.00000307
_cell_angle_beta   60.00000274
_cell_angle_gamma   60.00000484
_symmetry_Int_Tables_number   1
_chemical_formula_structural   CsRbLiCeF6
_chemical_formula_sum   'Cs1 Rb1 Li1 Ce1 F6'
_cell_volume   255.39759748
_cell_formula_units_Z   1
loop_
 _symmetry_equiv_pos_site_id
 _symmetry_equiv_pos_as_xyz
  1  'x, y, z'
loop_
 _atom_site_type_symbol
 _atom_site_label
 _atom_site_symmetry_multiplicity
 _atom_site_fract_x
 _atom_site_fract_y
 _atom_site_fract_z
 _atom_site_occupancy
  Cs  Cs0  1  0.25000000  0.25000000  0.25000000  1
  Ce  Ce1  1  0.75000000  0.75000000  0.75000000  1
  Li  Li2  1  0.00000000  0.00000000  0.00000000  1
  Rb  Rb3  1  0.50000000  0.50000000  0.50000000  1
  F  F4  1  0.75000000  0.75000000  0.25000000  1
  F  F5  1  0.25000000  0.25000000  0.75000000  1
  F  F6  1  0.75000000  0.25000000  0.75000000  1
  F  F7  1  0.25000000  0.75000000  0.25000000  1
  F  F8  1  0.25000000  0.75000000  0.75000000  1
  F  F9  1  0.75000000  0.25000000  0.25000000  1
