# generated using pymatgen
data_CsLi2CeI6
_symmetry_space_group_name_H-M   'P 1'
_cell_length_a   7.78623138
_cell_length_b   7.78623118
_cell_length_c   7.78623100
_cell_angle_alpha   59.99999650
_cell_angle_beta   59.99999738
_cell_angle_gamma   59.99999983
_symmetry_Int_Tables_number   1
_chemical_formula_structural   CsLi2CeI6
_chemical_formula_sum   'Cs1 Li2 Ce1 I6'
_cell_volume   333.78503779
_cell_formula_units_Z   1
loop_
 _symmetry_equiv_pos_site_id
 _symmetry_equiv_pos_as_xyz
  1  'x, y, z'
loop_
 _atom_site_type_symbol
 _atom_site_label
 _atom_site_symmetry_multiplicity
 _atom_site_fract_x
 _atom_site_fract_y
 _atom_site_fract_z
 _atom_site_occupancy
  Cs  Cs0  1  0.25000000  0.25000000  0.25000000  1
  Ce  Ce1  1  0.75000000  0.75000000  0.75000000  1
  Li  Li2  1  0.00000000  0.00000000  0.00000000  1
  Li  Li3  1  0.50000000  0.50000000  0.50000000  1
  I  I4  1  0.75000000  0.75000000  0.25000000  1
  I  I5  1  0.25000000  0.25000000  0.75000000  1
  I  I6  1  0.75000000  0.25000000  0.75000000  1
  I  I7  1  0.25000000  0.75000000  0.25000000  1
  I  I8  1  0.25000000  0.75000000  0.75000000  1
  I  I9  1  0.75000000  0.25000000  0.25000000  1
