# generated using pymatgen
data_CsCuHgRhF6
_symmetry_space_group_name_H-M   'P 1'
_cell_length_a   6.04297177
_cell_length_b   6.04297127
_cell_length_c   6.04297100
_cell_angle_alpha   59.99999602
_cell_angle_beta   59.99999874
_cell_angle_gamma   59.99999328
_symmetry_Int_Tables_number   1
_chemical_formula_structural   CsCuHgRhF6
_chemical_formula_sum   'Cs1 Cu1 Hg1 Rh1 F6'
_cell_volume   156.04022509
_cell_formula_units_Z   1
loop_
 _symmetry_equiv_pos_site_id
 _symmetry_equiv_pos_as_xyz
  1  'x, y, z'
loop_
 _atom_site_type_symbol
 _atom_site_label
 _atom_site_symmetry_multiplicity
 _atom_site_fract_x
 _atom_site_fract_y
 _atom_site_fract_z
 _atom_site_occupancy
  Cs  Cs0  1  0.25000000  0.25000000  0.25000000  1
  Hg  Hg1  1  0.75000000  0.75000000  0.75000000  1
  Cu  Cu2  1  0.00000000  0.00000000  0.00000000  1
  Rh  Rh3  1  0.50000000  0.50000000  0.50000000  1
  F  F4  1  0.75000000  0.75000000  0.25000000  1
  F  F5  1  0.25000000  0.25000000  0.75000000  1
  F  F6  1  0.75000000  0.25000000  0.75000000  1
  F  F7  1  0.25000000  0.75000000  0.25000000  1
  F  F8  1  0.25000000  0.75000000  0.75000000  1
  F  F9  1  0.75000000  0.25000000  0.25000000  1
