# generated using pymatgen
data_CsLiNiPbI6
_symmetry_space_group_name_H-M   'P 1'
_cell_length_a   7.89039294
_cell_length_b   7.89039275
_cell_length_c   7.89039300
_cell_angle_alpha   60.00000315
_cell_angle_beta   60.00000393
_cell_angle_gamma   60.00000426
_symmetry_Int_Tables_number   1
_chemical_formula_structural   CsLiNiPbI6
_chemical_formula_sum   'Cs1 Li1 Ni1 Pb1 I6'
_cell_volume   347.36089627
_cell_formula_units_Z   1
loop_
 _symmetry_equiv_pos_site_id
 _symmetry_equiv_pos_as_xyz
  1  'x, y, z'
loop_
 _atom_site_type_symbol
 _atom_site_label
 _atom_site_symmetry_multiplicity
 _atom_site_fract_x
 _atom_site_fract_y
 _atom_site_fract_z
 _atom_site_occupancy
  Cs  Cs0  1  0.25000000  0.25000000  0.25000000  1
  Pb  Pb1  1  0.75000000  0.75000000  0.75000000  1
  Li  Li2  1  0.00000000  0.00000000  0.00000000  1
  Ni  Ni3  1  0.50000000  0.50000000  0.50000000  1
  I  I4  1  0.75000000  0.75000000  0.25000000  1
  I  I5  1  0.25000000  0.25000000  0.75000000  1
  I  I6  1  0.75000000  0.25000000  0.75000000  1
  I  I7  1  0.25000000  0.75000000  0.25000000  1
  I  I8  1  0.25000000  0.75000000  0.75000000  1
  I  I9  1  0.75000000  0.25000000  0.25000000  1
