# generated using pymatgen
data_CsLiPmTlCl6
_symmetry_space_group_name_H-M   'P 1'
_cell_length_a   8.27081037
_cell_length_b   8.27081069
_cell_length_c   8.27081100
_cell_angle_alpha   60.00000276
_cell_angle_beta   60.00000149
_cell_angle_gamma   60.00000458
_symmetry_Int_Tables_number   1
_chemical_formula_structural   CsLiPmTlCl6
_chemical_formula_sum   'Cs1 Li1 Pm1 Tl1 Cl6'
_cell_volume   400.06381497
_cell_formula_units_Z   1
loop_
 _symmetry_equiv_pos_site_id
 _symmetry_equiv_pos_as_xyz
  1  'x, y, z'
loop_
 _atom_site_type_symbol
 _atom_site_label
 _atom_site_symmetry_multiplicity
 _atom_site_fract_x
 _atom_site_fract_y
 _atom_site_fract_z
 _atom_site_occupancy
  Cs  Cs0  1  0.25000000  0.25000000  0.25000000  1
  Pm  Pm1  1  0.75000000  0.75000000  0.75000000  1
  Li  Li2  1  0.00000000  0.00000000  0.00000000  1
  Tl  Tl3  1  0.50000000  0.50000000  0.50000000  1
  Cl  Cl4  1  0.75000000  0.75000000  0.25000000  1
  Cl  Cl5  1  0.25000000  0.25000000  0.75000000  1
  Cl  Cl6  1  0.75000000  0.25000000  0.75000000  1
  Cl  Cl7  1  0.25000000  0.75000000  0.25000000  1
  Cl  Cl8  1  0.25000000  0.75000000  0.75000000  1
  Cl  Cl9  1  0.75000000  0.25000000  0.25000000  1
