# generated using pymatgen
data_CsMn2TlCl6
_symmetry_space_group_name_H-M   'P 1'
_cell_length_a   7.21366959
_cell_length_b   7.21367004
_cell_length_c   7.21367000
_cell_angle_alpha   60.00000020
_cell_angle_beta   59.99999812
_cell_angle_gamma   60.00000083
_symmetry_Int_Tables_number   1
_chemical_formula_structural   CsMn2TlCl6
_chemical_formula_sum   'Cs1 Mn2 Tl1 Cl6'
_cell_volume   265.43231217
_cell_formula_units_Z   1
loop_
 _symmetry_equiv_pos_site_id
 _symmetry_equiv_pos_as_xyz
  1  'x, y, z'
loop_
 _atom_site_type_symbol
 _atom_site_label
 _atom_site_symmetry_multiplicity
 _atom_site_fract_x
 _atom_site_fract_y
 _atom_site_fract_z
 _atom_site_occupancy
  Cs  Cs0  1  0.25000000  0.25000000  0.25000000  1
  Tl  Tl1  1  0.75000000  0.75000000  0.75000000  1
  Mn  Mn2  1  0.00000000  0.00000000  0.00000000  1
  Mn  Mn3  1  0.50000000  0.50000000  0.50000000  1
  Cl  Cl4  1  0.75000000  0.75000000  0.25000000  1
  Cl  Cl5  1  0.25000000  0.25000000  0.75000000  1
  Cl  Cl6  1  0.75000000  0.25000000  0.75000000  1
  Cl  Cl7  1  0.25000000  0.75000000  0.25000000  1
  Cl  Cl8  1  0.25000000  0.75000000  0.75000000  1
  Cl  Cl9  1  0.75000000  0.25000000  0.25000000  1
