# generated using pymatgen
data_BeCo(CuCl3)2
_symmetry_space_group_name_H-M   'P 1'
_cell_length_a   6.52835228
_cell_length_b   6.52835278
_cell_length_c   6.52835300
_cell_angle_alpha   60.00000393
_cell_angle_beta   60.00000142
_cell_angle_gamma   60.00000346
_symmetry_Int_Tables_number   1
_chemical_formula_structural   BeCo(CuCl3)2
_chemical_formula_sum   'Be1 Co1 Cu2 Cl6'
_cell_volume   196.74144498
_cell_formula_units_Z   1
loop_
 _symmetry_equiv_pos_site_id
 _symmetry_equiv_pos_as_xyz
  1  'x, y, z'
loop_
 _atom_site_type_symbol
 _atom_site_label
 _atom_site_symmetry_multiplicity
 _atom_site_fract_x
 _atom_site_fract_y
 _atom_site_fract_z
 _atom_site_occupancy
  Cu  Cu0  1  0.25000000  0.25000000  0.25000000  1
  Cu  Cu1  1  0.75000000  0.75000000  0.75000000  1
  Be  Be2  1  0.00000000  0.00000000  0.00000000  1
  Co  Co3  1  0.50000000  0.50000000  0.50000000  1
  Cl  Cl4  1  0.75000000  0.75000000  0.25000000  1
  Cl  Cl5  1  0.25000000  0.25000000  0.75000000  1
  Cl  Cl6  1  0.75000000  0.25000000  0.75000000  1
  Cl  Cl7  1  0.25000000  0.75000000  0.25000000  1
  Cl  Cl8  1  0.25000000  0.75000000  0.75000000  1
  Cl  Cl9  1  0.75000000  0.25000000  0.25000000  1
