# generated using pymatgen
data_CsTm(CuI3)2
_symmetry_space_group_name_H-M   'P 1'
_cell_length_a   9.97847539
_cell_length_b   9.97847559
_cell_length_c   9.97847600
_cell_angle_alpha   59.99999864
_cell_angle_beta   59.99999797
_cell_angle_gamma   59.99999740
_symmetry_Int_Tables_number   1
_chemical_formula_structural   CsTm(CuI3)2
_chemical_formula_sum   'Cs1 Tm1 Cu2 I6'
_cell_volume   702.55056816
_cell_formula_units_Z   1
loop_
 _symmetry_equiv_pos_site_id
 _symmetry_equiv_pos_as_xyz
  1  'x, y, z'
loop_
 _atom_site_type_symbol
 _atom_site_label
 _atom_site_symmetry_multiplicity
 _atom_site_fract_x
 _atom_site_fract_y
 _atom_site_fract_z
 _atom_site_occupancy
  Cu  Cu0  1  0.25000000  0.25000000  0.25000000  1
  Cu  Cu1  1  0.75000000  0.75000000  0.75000000  1
  Cs  Cs2  1  0.00000000  0.00000000  0.00000000  1
  Tm  Tm3  1  0.50000000  0.50000000  0.50000000  1
  I  I4  1  0.75000000  0.75000000  0.25000000  1
  I  I5  1  0.25000000  0.25000000  0.75000000  1
  I  I6  1  0.75000000  0.25000000  0.75000000  1
  I  I7  1  0.25000000  0.75000000  0.25000000  1
  I  I8  1  0.25000000  0.75000000  0.75000000  1
  I  I9  1  0.75000000  0.25000000  0.25000000  1
