# generated using pymatgen
data_ErTl(CuI3)2
_symmetry_space_group_name_H-M   'P 1'
_cell_length_a   8.98660096
_cell_length_b   8.98660068
_cell_length_c   8.98660100
_cell_angle_alpha   60.00000252
_cell_angle_beta   60.00000353
_cell_angle_gamma   60.00000347
_symmetry_Int_Tables_number   1
_chemical_formula_structural   ErTl(CuI3)2
_chemical_formula_sum   'Er1 Tl1 Cu2 I6'
_cell_volume   513.18197664
_cell_formula_units_Z   1
loop_
 _symmetry_equiv_pos_site_id
 _symmetry_equiv_pos_as_xyz
  1  'x, y, z'
loop_
 _atom_site_type_symbol
 _atom_site_label
 _atom_site_symmetry_multiplicity
 _atom_site_fract_x
 _atom_site_fract_y
 _atom_site_fract_z
 _atom_site_occupancy
  Cu  Cu0  1  0.25000000  0.25000000  0.25000000  1
  Cu  Cu1  1  0.75000000  0.75000000  0.75000000  1
  Er  Er2  1  0.00000000  0.00000000  0.00000000  1
  Tl  Tl3  1  0.50000000  0.50000000  0.50000000  1
  I  I4  1  0.75000000  0.75000000  0.25000000  1
  I  I5  1  0.25000000  0.25000000  0.75000000  1
  I  I6  1  0.75000000  0.25000000  0.75000000  1
  I  I7  1  0.25000000  0.75000000  0.25000000  1
  I  I8  1  0.25000000  0.75000000  0.75000000  1
  I  I9  1  0.75000000  0.25000000  0.25000000  1
