# generated using pymatgen
data_NbCuAgHgF6
_symmetry_space_group_name_H-M   'P 1'
_cell_length_a   6.05633305
_cell_length_b   6.05633317
_cell_length_c   6.05633300
_cell_angle_alpha   59.99999547
_cell_angle_beta   59.99999481
_cell_angle_gamma   59.99999405
_symmetry_Int_Tables_number   1
_chemical_formula_structural   NbCuAgHgF6
_chemical_formula_sum   'Nb1 Cu1 Ag1 Hg1 F6'
_cell_volume   157.07758132
_cell_formula_units_Z   1
loop_
 _symmetry_equiv_pos_site_id
 _symmetry_equiv_pos_as_xyz
  1  'x, y, z'
loop_
 _atom_site_type_symbol
 _atom_site_label
 _atom_site_symmetry_multiplicity
 _atom_site_fract_x
 _atom_site_fract_y
 _atom_site_fract_z
 _atom_site_occupancy
  Cu  Cu0  1  0.25000000  0.25000000  0.25000000  1
  Ag  Ag1  1  0.75000000  0.75000000  0.75000000  1
  Nb  Nb2  1  0.00000000  0.00000000  0.00000000  1
  Hg  Hg3  1  0.50000000  0.50000000  0.50000000  1
  F  F4  1  0.75000000  0.75000000  0.25000000  1
  F  F5  1  0.25000000  0.25000000  0.75000000  1
  F  F6  1  0.75000000  0.25000000  0.75000000  1
  F  F7  1  0.25000000  0.75000000  0.25000000  1
  F  F8  1  0.25000000  0.75000000  0.75000000  1
  F  F9  1  0.75000000  0.25000000  0.25000000  1
