# generated using pymatgen
data_ErTlCuAgCl6
_symmetry_space_group_name_H-M   'P 1'
_cell_length_a   8.16658469
_cell_length_b   8.16658496
_cell_length_c   8.16658500
_cell_angle_alpha   60.00000390
_cell_angle_beta   60.00000278
_cell_angle_gamma   60.00000297
_symmetry_Int_Tables_number   1
_chemical_formula_structural   ErTlCuAgCl6
_chemical_formula_sum   'Er1 Tl1 Cu1 Ag1 Cl6'
_cell_volume   385.12922467
_cell_formula_units_Z   1
loop_
 _symmetry_equiv_pos_site_id
 _symmetry_equiv_pos_as_xyz
  1  'x, y, z'
loop_
 _atom_site_type_symbol
 _atom_site_label
 _atom_site_symmetry_multiplicity
 _atom_site_fract_x
 _atom_site_fract_y
 _atom_site_fract_z
 _atom_site_occupancy
  Cu  Cu0  1  0.25000000  0.25000000  0.25000000  1
  Ag  Ag1  1  0.75000000  0.75000000  0.75000000  1
  Er  Er2  1  0.00000000  0.00000000  0.00000000  1
  Tl  Tl3  1  0.50000000  0.50000000  0.50000000  1
  Cl  Cl4  1  0.75000000  0.75000000  0.25000000  1
  Cl  Cl5  1  0.25000000  0.25000000  0.75000000  1
  Cl  Cl6  1  0.75000000  0.25000000  0.75000000  1
  Cl  Cl7  1  0.25000000  0.75000000  0.25000000  1
  Cl  Cl8  1  0.25000000  0.75000000  0.75000000  1
  Cl  Cl9  1  0.75000000  0.25000000  0.25000000  1
