# generated using pymatgen
data_LiLaCuAuCl6
_symmetry_space_group_name_H-M   'P 1'
_cell_length_a   7.76876625
_cell_length_b   7.76876622
_cell_length_c   7.76876700
_cell_angle_alpha   60.00000096
_cell_angle_beta   60.00000106
_cell_angle_gamma   59.99999814
_symmetry_Int_Tables_number   1
_chemical_formula_structural   LiLaCuAuCl6
_chemical_formula_sum   'Li1 La1 Cu1 Au1 Cl6'
_cell_volume   331.54402560
_cell_formula_units_Z   1
loop_
 _symmetry_equiv_pos_site_id
 _symmetry_equiv_pos_as_xyz
  1  'x, y, z'
loop_
 _atom_site_type_symbol
 _atom_site_label
 _atom_site_symmetry_multiplicity
 _atom_site_fract_x
 _atom_site_fract_y
 _atom_site_fract_z
 _atom_site_occupancy
  Cu  Cu0  1  0.25000000  0.25000000  0.25000000  1
  Au  Au1  1  0.75000000  0.75000000  0.75000000  1
  Li  Li2  1  0.00000000  0.00000000  0.00000000  1
  La  La3  1  0.50000000  0.50000000  0.50000000  1
  Cl  Cl4  1  0.75000000  0.75000000  0.25000000  1
  Cl  Cl5  1  0.25000000  0.25000000  0.75000000  1
  Cl  Cl6  1  0.75000000  0.25000000  0.75000000  1
  Cl  Cl7  1  0.25000000  0.75000000  0.25000000  1
  Cl  Cl8  1  0.25000000  0.75000000  0.75000000  1
  Cl  Cl9  1  0.75000000  0.25000000  0.25000000  1
