# generated using pymatgen
data_CsCdFeCuI6
_symmetry_space_group_name_H-M   'P 1'
_cell_length_a   10.16130006
_cell_length_b   10.16129952
_cell_length_c   10.16130000
_cell_angle_alpha   59.99999845
_cell_angle_beta   60.00000018
_cell_angle_gamma   59.99999651
_symmetry_Int_Tables_number   1
_chemical_formula_structural   CsCdFeCuI6
_chemical_formula_sum   'Cs1 Cd1 Fe1 Cu1 I6'
_cell_volume   741.87850651
_cell_formula_units_Z   1
loop_
 _symmetry_equiv_pos_site_id
 _symmetry_equiv_pos_as_xyz
  1  'x, y, z'
loop_
 _atom_site_type_symbol
 _atom_site_label
 _atom_site_symmetry_multiplicity
 _atom_site_fract_x
 _atom_site_fract_y
 _atom_site_fract_z
 _atom_site_occupancy
  Cu  Cu0  1  0.25000000  0.25000000  0.25000000  1
  Cd  Cd1  1  0.75000000  0.75000000  0.75000000  1
  Fe  Fe2  1  0.00000000  0.00000000  0.00000000  1
  Cs  Cs3  1  0.50000000  0.50000000  0.50000000  1
  I  I4  1  0.75000000  0.75000000  0.25000000  1
  I  I5  1  0.25000000  0.25000000  0.75000000  1
  I  I6  1  0.75000000  0.25000000  0.75000000  1
  I  I7  1  0.25000000  0.75000000  0.25000000  1
  I  I8  1  0.25000000  0.75000000  0.75000000  1
  I  I9  1  0.75000000  0.25000000  0.25000000  1
