# generated using pymatgen
data_CsEuCuPbF6
_symmetry_space_group_name_H-M   'P 1'
_cell_length_a   6.78534463
_cell_length_b   6.78534465
_cell_length_c   6.78534500
_cell_angle_alpha   60.00000315
_cell_angle_beta   60.00000305
_cell_angle_gamma   60.00000495
_symmetry_Int_Tables_number   1
_chemical_formula_structural   CsEuCuPbF6
_chemical_formula_sum   'Cs1 Eu1 Cu1 Pb1 F6'
_cell_volume   220.90258333
_cell_formula_units_Z   1
loop_
 _symmetry_equiv_pos_site_id
 _symmetry_equiv_pos_as_xyz
  1  'x, y, z'
loop_
 _atom_site_type_symbol
 _atom_site_label
 _atom_site_symmetry_multiplicity
 _atom_site_fract_x
 _atom_site_fract_y
 _atom_site_fract_z
 _atom_site_occupancy
  Cu  Cu0  1  0.25000000  0.25000000  0.25000000  1
  Cs  Cs1  1  0.75000000  0.75000000  0.75000000  1
  Eu  Eu2  1  0.00000000  0.00000000  0.00000000  1
  Pb  Pb3  1  0.50000000  0.50000000  0.50000000  1
  F  F4  1  0.75000000  0.75000000  0.25000000  1
  F  F5  1  0.25000000  0.25000000  0.75000000  1
  F  F6  1  0.75000000  0.25000000  0.75000000  1
  F  F7  1  0.25000000  0.75000000  0.25000000  1
  F  F8  1  0.25000000  0.75000000  0.75000000  1
  F  F9  1  0.75000000  0.25000000  0.25000000  1
