# generated using pymatgen
data_EuCuAgPbBr6
_symmetry_space_group_name_H-M   'P 1'
_cell_length_a   8.21661447
_cell_length_b   8.21661458
_cell_length_c   8.21661500
_cell_angle_alpha   60.00000233
_cell_angle_beta   60.00000189
_cell_angle_gamma   60.00000402
_symmetry_Int_Tables_number   1
_chemical_formula_structural   EuCuAgPbBr6
_chemical_formula_sum   'Eu1 Cu1 Ag1 Pb1 Br6'
_cell_volume   392.25075936
_cell_formula_units_Z   1
loop_
 _symmetry_equiv_pos_site_id
 _symmetry_equiv_pos_as_xyz
  1  'x, y, z'
loop_
 _atom_site_type_symbol
 _atom_site_label
 _atom_site_symmetry_multiplicity
 _atom_site_fract_x
 _atom_site_fract_y
 _atom_site_fract_z
 _atom_site_occupancy
  Cu  Cu0  1  0.25000000  0.25000000  0.25000000  1
  Eu  Eu1  1  0.75000000  0.75000000  0.75000000  1
  Ag  Ag2  1  0.00000000  0.00000000  0.00000000  1
  Pb  Pb3  1  0.50000000  0.50000000  0.50000000  1
  Br  Br4  1  0.75000000  0.75000000  0.25000000  1
  Br  Br5  1  0.25000000  0.25000000  0.75000000  1
  Br  Br6  1  0.75000000  0.25000000  0.75000000  1
  Br  Br7  1  0.25000000  0.75000000  0.25000000  1
  Br  Br8  1  0.25000000  0.75000000  0.75000000  1
  Br  Br9  1  0.75000000  0.25000000  0.25000000  1
