# generated using pymatgen
data_NaDyCuHgF6
_symmetry_space_group_name_H-M   'P 1'
_cell_length_a   6.13358215
_cell_length_b   6.13358233
_cell_length_c   6.13358200
_cell_angle_alpha   60.00000179
_cell_angle_beta   60.00000080
_cell_angle_gamma   59.99999841
_symmetry_Int_Tables_number   1
_chemical_formula_structural   NaDyCuHgF6
_chemical_formula_sum   'Na1 Dy1 Cu1 Hg1 F6'
_cell_volume   163.16521092
_cell_formula_units_Z   1
loop_
 _symmetry_equiv_pos_site_id
 _symmetry_equiv_pos_as_xyz
  1  'x, y, z'
loop_
 _atom_site_type_symbol
 _atom_site_label
 _atom_site_symmetry_multiplicity
 _atom_site_fract_x
 _atom_site_fract_y
 _atom_site_fract_z
 _atom_site_occupancy
  Cu  Cu0  1  0.25000000  0.25000000  0.25000000  1
  Hg  Hg1  1  0.75000000  0.75000000  0.75000000  1
  Na  Na2  1  0.00000000  0.00000000  0.00000000  1
  Dy  Dy3  1  0.50000000  0.50000000  0.50000000  1
  F  F4  1  0.75000000  0.75000000  0.25000000  1
  F  F5  1  0.25000000  0.25000000  0.75000000  1
  F  F6  1  0.75000000  0.25000000  0.75000000  1
  F  F7  1  0.25000000  0.75000000  0.25000000  1
  F  F8  1  0.25000000  0.75000000  0.75000000  1
  F  F9  1  0.75000000  0.25000000  0.25000000  1
