# generated using pymatgen
data_LiCuNiPbF6
_symmetry_space_group_name_H-M   'P 1'
_cell_length_a   5.49861588
_cell_length_b   5.49861595
_cell_length_c   5.49861600
_cell_angle_alpha   59.99999969
_cell_angle_beta   59.99999926
_cell_angle_gamma   59.99999646
_symmetry_Int_Tables_number   1
_chemical_formula_structural   LiCuNiPbF6
_chemical_formula_sum   'Li1 Cu1 Ni1 Pb1 F6'
_cell_volume   117.55609408
_cell_formula_units_Z   1
loop_
 _symmetry_equiv_pos_site_id
 _symmetry_equiv_pos_as_xyz
  1  'x, y, z'
loop_
 _atom_site_type_symbol
 _atom_site_label
 _atom_site_symmetry_multiplicity
 _atom_site_fract_x
 _atom_site_fract_y
 _atom_site_fract_z
 _atom_site_occupancy
  Cu  Cu0  1  0.25000000  0.25000000  0.25000000  1
  Pb  Pb1  1  0.75000000  0.75000000  0.75000000  1
  Li  Li2  1  0.00000000  0.00000000  0.00000000  1
  Ni  Ni3  1  0.50000000  0.50000000  0.50000000  1
  F  F4  1  0.75000000  0.75000000  0.25000000  1
  F  F5  1  0.25000000  0.25000000  0.75000000  1
  F  F6  1  0.75000000  0.25000000  0.75000000  1
  F  F7  1  0.25000000  0.75000000  0.25000000  1
  F  F8  1  0.25000000  0.75000000  0.75000000  1
  F  F9  1  0.75000000  0.25000000  0.25000000  1
