# generated using pymatgen
data_NaZnCuPtF6
_symmetry_space_group_name_H-M   'P 1'
_cell_length_a   5.81000755
_cell_length_b   5.81000750
_cell_length_c   5.81000700
_cell_angle_alpha   59.99999716
_cell_angle_beta   59.99999742
_cell_angle_gamma   59.99999473
_symmetry_Int_Tables_number   1
_chemical_formula_structural   NaZnCuPtF6
_chemical_formula_sum   'Na1 Zn1 Cu1 Pt1 F6'
_cell_volume   138.68037657
_cell_formula_units_Z   1
loop_
 _symmetry_equiv_pos_site_id
 _symmetry_equiv_pos_as_xyz
  1  'x, y, z'
loop_
 _atom_site_type_symbol
 _atom_site_label
 _atom_site_symmetry_multiplicity
 _atom_site_fract_x
 _atom_site_fract_y
 _atom_site_fract_z
 _atom_site_occupancy
  Cu  Cu0  1  0.25000000  0.25000000  0.25000000  1
  Pt  Pt1  1  0.75000000  0.75000000  0.75000000  1
  Na  Na2  1  0.00000000  0.00000000  0.00000000  1
  Zn  Zn3  1  0.50000000  0.50000000  0.50000000  1
  F  F4  1  0.75000000  0.75000000  0.25000000  1
  F  F5  1  0.25000000  0.25000000  0.75000000  1
  F  F6  1  0.75000000  0.25000000  0.75000000  1
  F  F7  1  0.25000000  0.75000000  0.25000000  1
  F  F8  1  0.25000000  0.75000000  0.75000000  1
  F  F9  1  0.75000000  0.25000000  0.25000000  1
