# generated using pymatgen
data_RbMg2CuCl6
_symmetry_space_group_name_H-M   'P 1'
_cell_length_a   6.99690074
_cell_length_b   6.99690086
_cell_length_c   6.99690100
_cell_angle_alpha   60.00000407
_cell_angle_beta   60.00000349
_cell_angle_gamma   60.00000564
_symmetry_Int_Tables_number   1
_chemical_formula_structural   RbMg2CuCl6
_chemical_formula_sum   'Rb1 Mg2 Cu1 Cl6'
_cell_volume   242.21565424
_cell_formula_units_Z   1
loop_
 _symmetry_equiv_pos_site_id
 _symmetry_equiv_pos_as_xyz
  1  'x, y, z'
loop_
 _atom_site_type_symbol
 _atom_site_label
 _atom_site_symmetry_multiplicity
 _atom_site_fract_x
 _atom_site_fract_y
 _atom_site_fract_z
 _atom_site_occupancy
  Cu  Cu0  1  0.25000000  0.25000000  0.25000000  1
  Rb  Rb1  1  0.75000000  0.75000000  0.75000000  1
  Mg  Mg2  1  0.00000000  0.00000000  0.00000000  1
  Mg  Mg3  1  0.50000000  0.50000000  0.50000000  1
  Cl  Cl4  1  0.75000000  0.75000000  0.25000000  1
  Cl  Cl5  1  0.25000000  0.25000000  0.75000000  1
  Cl  Cl6  1  0.75000000  0.25000000  0.75000000  1
  Cl  Cl7  1  0.25000000  0.75000000  0.25000000  1
  Cl  Cl8  1  0.25000000  0.75000000  0.75000000  1
  Cl  Cl9  1  0.75000000  0.25000000  0.25000000  1
