# generated using pymatgen
data_CuHg2RuF6
_symmetry_space_group_name_H-M   'P 1'
_cell_length_a   6.30653790
_cell_length_b   6.30653750
_cell_length_c   6.30653700
_cell_angle_alpha   59.99999739
_cell_angle_beta   59.99999946
_cell_angle_gamma   59.99999454
_symmetry_Int_Tables_number   1
_chemical_formula_structural   CuHg2RuF6
_chemical_formula_sum   'Cu1 Hg2 Ru1 F6'
_cell_volume   177.36091246
_cell_formula_units_Z   1
loop_
 _symmetry_equiv_pos_site_id
 _symmetry_equiv_pos_as_xyz
  1  'x, y, z'
loop_
 _atom_site_type_symbol
 _atom_site_label
 _atom_site_symmetry_multiplicity
 _atom_site_fract_x
 _atom_site_fract_y
 _atom_site_fract_z
 _atom_site_occupancy
  Cu  Cu0  1  0.25000000  0.25000000  0.25000000  1
  Ru  Ru1  1  0.75000000  0.75000000  0.75000000  1
  Hg  Hg2  1  0.00000000  0.00000000  0.00000000  1
  Hg  Hg3  1  0.50000000  0.50000000  0.50000000  1
  F  F4  1  0.75000000  0.75000000  0.25000000  1
  F  F5  1  0.25000000  0.25000000  0.75000000  1
  F  F6  1  0.75000000  0.25000000  0.75000000  1
  F  F7  1  0.25000000  0.75000000  0.25000000  1
  F  F8  1  0.25000000  0.75000000  0.75000000  1
  F  F9  1  0.75000000  0.25000000  0.25000000  1
