# generated using pymatgen
data_MnTlCoCuCl6
_symmetry_space_group_name_H-M   'P 1'
_cell_length_a   6.97856872
_cell_length_b   6.97856887
_cell_length_c   6.97856900
_cell_angle_alpha   60.00000413
_cell_angle_beta   60.00000341
_cell_angle_gamma   60.00000574
_symmetry_Int_Tables_number   1
_chemical_formula_structural   MnTlCoCuCl6
_chemical_formula_sum   'Mn1 Tl1 Co1 Cu1 Cl6'
_cell_volume   240.31681029
_cell_formula_units_Z   1
loop_
 _symmetry_equiv_pos_site_id
 _symmetry_equiv_pos_as_xyz
  1  'x, y, z'
loop_
 _atom_site_type_symbol
 _atom_site_label
 _atom_site_symmetry_multiplicity
 _atom_site_fract_x
 _atom_site_fract_y
 _atom_site_fract_z
 _atom_site_occupancy
  Cu  Cu0  1  0.25000000  0.25000000  0.25000000  1
  Tl  Tl1  1  0.75000000  0.75000000  0.75000000  1
  Mn  Mn2  1  0.00000000  0.00000000  0.00000000  1
  Co  Co3  1  0.50000000  0.50000000  0.50000000  1
  Cl  Cl4  1  0.75000000  0.75000000  0.25000000  1
  Cl  Cl5  1  0.25000000  0.25000000  0.75000000  1
  Cl  Cl6  1  0.75000000  0.25000000  0.75000000  1
  Cl  Cl7  1  0.25000000  0.75000000  0.25000000  1
  Cl  Cl8  1  0.25000000  0.75000000  0.75000000  1
  Cl  Cl9  1  0.75000000  0.25000000  0.25000000  1
