# generated using pymatgen
data_NaLaTlCuF6
_symmetry_space_group_name_H-M   'P 1'
_cell_length_a   6.40621171
_cell_length_b   6.40621099
_cell_length_c   6.40621100
_cell_angle_alpha   59.99999480
_cell_angle_beta   59.99999851
_cell_angle_gamma   59.99999529
_symmetry_Int_Tables_number   1
_chemical_formula_structural   NaLaTlCuF6
_chemical_formula_sum   'Na1 La1 Tl1 Cu1 F6'
_cell_volume   185.90399766
_cell_formula_units_Z   1
loop_
 _symmetry_equiv_pos_site_id
 _symmetry_equiv_pos_as_xyz
  1  'x, y, z'
loop_
 _atom_site_type_symbol
 _atom_site_label
 _atom_site_symmetry_multiplicity
 _atom_site_fract_x
 _atom_site_fract_y
 _atom_site_fract_z
 _atom_site_occupancy
  Cu  Cu0  1  0.25000000  0.25000000  0.25000000  1
  Tl  Tl1  1  0.75000000  0.75000000  0.75000000  1
  Na  Na2  1  0.00000000  0.00000000  0.00000000  1
  La  La3  1  0.50000000  0.50000000  0.50000000  1
  F  F4  1  0.75000000  0.75000000  0.25000000  1
  F  F5  1  0.25000000  0.25000000  0.75000000  1
  F  F6  1  0.75000000  0.25000000  0.75000000  1
  F  F7  1  0.25000000  0.75000000  0.25000000  1
  F  F8  1  0.25000000  0.75000000  0.75000000  1
  F  F9  1  0.75000000  0.25000000  0.25000000  1
