# generated using pymatgen
data_CsScTlCuCl6
_symmetry_space_group_name_H-M   'P 1'
_cell_length_a   8.85954832
_cell_length_b   8.85954822
_cell_length_c   8.85954800
_cell_angle_alpha   60.00000084
_cell_angle_beta   60.00000118
_cell_angle_gamma   60.00000260
_symmetry_Int_Tables_number   1
_chemical_formula_structural   CsScTlCuCl6
_chemical_formula_sum   'Cs1 Sc1 Tl1 Cu1 Cl6'
_cell_volume   491.72211414
_cell_formula_units_Z   1
loop_
 _symmetry_equiv_pos_site_id
 _symmetry_equiv_pos_as_xyz
  1  'x, y, z'
loop_
 _atom_site_type_symbol
 _atom_site_label
 _atom_site_symmetry_multiplicity
 _atom_site_fract_x
 _atom_site_fract_y
 _atom_site_fract_z
 _atom_site_occupancy
  Cu  Cu0  1  0.25000000  0.25000000  0.25000000  1
  Tl  Tl1  1  0.75000000  0.75000000  0.75000000  1
  Sc  Sc2  1  0.00000000  0.00000000  0.00000000  1
  Cs  Cs3  1  0.50000000  0.50000000  0.50000000  1
  Cl  Cl4  1  0.75000000  0.75000000  0.25000000  1
  Cl  Cl5  1  0.25000000  0.25000000  0.75000000  1
  Cl  Cl6  1  0.75000000  0.25000000  0.75000000  1
  Cl  Cl7  1  0.25000000  0.75000000  0.25000000  1
  Cl  Cl8  1  0.25000000  0.75000000  0.75000000  1
  Cl  Cl9  1  0.75000000  0.25000000  0.25000000  1
