# generated using pymatgen
data_TlZnFeCuCl6
_symmetry_space_group_name_H-M   'P 1'
_cell_length_a   8.32009693
_cell_length_b   8.32009742
_cell_length_c   8.32009700
_cell_angle_alpha   59.99999768
_cell_angle_beta   59.99999576
_cell_angle_gamma   59.99999909
_symmetry_Int_Tables_number   1
_chemical_formula_structural   TlZnFeCuCl6
_chemical_formula_sum   'Tl1 Zn1 Fe1 Cu1 Cl6'
_cell_volume   407.25850684
_cell_formula_units_Z   1
loop_
 _symmetry_equiv_pos_site_id
 _symmetry_equiv_pos_as_xyz
  1  'x, y, z'
loop_
 _atom_site_type_symbol
 _atom_site_label
 _atom_site_symmetry_multiplicity
 _atom_site_fract_x
 _atom_site_fract_y
 _atom_site_fract_z
 _atom_site_occupancy
  Cu  Cu0  1  0.25000000  0.25000000  0.25000000  1
  Zn  Zn1  1  0.75000000  0.75000000  0.75000000  1
  Fe  Fe2  1  0.00000000  0.00000000  0.00000000  1
  Tl  Tl3  1  0.50000000  0.50000000  0.50000000  1
  Cl  Cl4  1  0.75000000  0.75000000  0.25000000  1
  Cl  Cl5  1  0.25000000  0.25000000  0.75000000  1
  Cl  Cl6  1  0.75000000  0.25000000  0.75000000  1
  Cl  Cl7  1  0.25000000  0.75000000  0.25000000  1
  Cl  Cl8  1  0.25000000  0.75000000  0.75000000  1
  Cl  Cl9  1  0.75000000  0.25000000  0.25000000  1
