# generated using pymatgen
data_NaLiFe2F6
_symmetry_space_group_name_H-M   'P 1'
_cell_length_a   5.71255410
_cell_length_b   5.71255407
_cell_length_c   5.71255400
_cell_angle_alpha   60.00000041
_cell_angle_beta   60.00000058
_cell_angle_gamma   60.00000356
_symmetry_Int_Tables_number   1
_chemical_formula_structural   NaLiFe2F6
_chemical_formula_sum   'Na1 Li1 Fe2 F6'
_cell_volume   131.81838465
_cell_formula_units_Z   1
loop_
 _symmetry_equiv_pos_site_id
 _symmetry_equiv_pos_as_xyz
  1  'x, y, z'
loop_
 _atom_site_type_symbol
 _atom_site_label
 _atom_site_symmetry_multiplicity
 _atom_site_fract_x
 _atom_site_fract_y
 _atom_site_fract_z
 _atom_site_occupancy
  Fe  Fe0  1  0.25000000  0.25000000  0.25000000  1
  Fe  Fe1  1  0.75000000  0.75000000  0.75000000  1
  Li  Li2  1  0.00000000  0.00000000  0.00000000  1
  Na  Na3  1  0.50000000  0.50000000  0.50000000  1
  F  F4  1  0.75000000  0.75000000  0.25000000  1
  F  F5  1  0.25000000  0.25000000  0.75000000  1
  F  F6  1  0.75000000  0.25000000  0.75000000  1
  F  F7  1  0.25000000  0.75000000  0.25000000  1
  F  F8  1  0.25000000  0.75000000  0.75000000  1
  F  F9  1  0.75000000  0.25000000  0.25000000  1
