# generated using pymatgen
data_CsFeCuPtCl6
_symmetry_space_group_name_H-M   'P 1'
_cell_length_a   7.02097637
_cell_length_b   7.02097684
_cell_length_c   7.02097700
_cell_angle_alpha   60.00000398
_cell_angle_beta   60.00000173
_cell_angle_gamma   60.00000612
_symmetry_Int_Tables_number   1
_chemical_formula_structural   CsFeCuPtCl6
_chemical_formula_sum   'Cs1 Fe1 Cu1 Pt1 Cl6'
_cell_volume   244.72460895
_cell_formula_units_Z   1
loop_
 _symmetry_equiv_pos_site_id
 _symmetry_equiv_pos_as_xyz
  1  'x, y, z'
loop_
 _atom_site_type_symbol
 _atom_site_label
 _atom_site_symmetry_multiplicity
 _atom_site_fract_x
 _atom_site_fract_y
 _atom_site_fract_z
 _atom_site_occupancy
  Fe  Fe0  1  0.25000000  0.25000000  0.25000000  1
  Cs  Cs1  1  0.75000000  0.75000000  0.75000000  1
  Cu  Cu2  1  0.00000000  0.00000000  0.00000000  1
  Pt  Pt3  1  0.50000000  0.50000000  0.50000000  1
  Cl  Cl4  1  0.75000000  0.75000000  0.25000000  1
  Cl  Cl5  1  0.25000000  0.25000000  0.75000000  1
  Cl  Cl6  1  0.75000000  0.25000000  0.75000000  1
  Cl  Cl7  1  0.25000000  0.75000000  0.25000000  1
  Cl  Cl8  1  0.25000000  0.75000000  0.75000000  1
  Cl  Cl9  1  0.75000000  0.25000000  0.25000000  1
