# generated using pymatgen
data_Cs2EuFeCl6
_symmetry_space_group_name_H-M   'P 1'
_cell_length_a   9.32079230
_cell_length_b   9.32079220
_cell_length_c   9.32079200
_cell_angle_alpha   60.00000070
_cell_angle_beta   60.00000106
_cell_angle_gamma   60.00000035
_symmetry_Int_Tables_number   1
_chemical_formula_structural   Cs2EuFeCl6
_chemical_formula_sum   'Cs2 Eu1 Fe1 Cl6'
_cell_volume   572.58963430
_cell_formula_units_Z   1
loop_
 _symmetry_equiv_pos_site_id
 _symmetry_equiv_pos_as_xyz
  1  'x, y, z'
loop_
 _atom_site_type_symbol
 _atom_site_label
 _atom_site_symmetry_multiplicity
 _atom_site_fract_x
 _atom_site_fract_y
 _atom_site_fract_z
 _atom_site_occupancy
  Fe  Fe0  1  0.25000000  0.25000000  0.25000000  1
  Eu  Eu1  1  0.75000000  0.75000000  0.75000000  1
  Cs  Cs2  1  0.00000000  0.00000000  0.00000000  1
  Cs  Cs3  1  0.50000000  0.50000000  0.50000000  1
  Cl  Cl4  1  0.75000000  0.75000000  0.25000000  1
  Cl  Cl5  1  0.25000000  0.25000000  0.75000000  1
  Cl  Cl6  1  0.75000000  0.25000000  0.75000000  1
  Cl  Cl7  1  0.25000000  0.75000000  0.25000000  1
  Cl  Cl8  1  0.25000000  0.75000000  0.75000000  1
  Cl  Cl9  1  0.75000000  0.25000000  0.25000000  1
