# generated using pymatgen
data_CsTlZnFeBr6
_symmetry_space_group_name_H-M   'P 1'
_cell_length_a   9.56381547
_cell_length_b   9.56381598
_cell_length_c   9.56381500
_cell_angle_alpha   59.99999995
_cell_angle_beta   59.99999816
_cell_angle_gamma   59.99999856
_symmetry_Int_Tables_number   1
_chemical_formula_structural   CsTlZnFeBr6
_chemical_formula_sum   'Cs1 Tl1 Zn1 Fe1 Br6'
_cell_volume   618.55533523
_cell_formula_units_Z   1
loop_
 _symmetry_equiv_pos_site_id
 _symmetry_equiv_pos_as_xyz
  1  'x, y, z'
loop_
 _atom_site_type_symbol
 _atom_site_label
 _atom_site_symmetry_multiplicity
 _atom_site_fract_x
 _atom_site_fract_y
 _atom_site_fract_z
 _atom_site_occupancy
  Fe  Fe0  1  0.25000000  0.25000000  0.25000000  1
  Zn  Zn1  1  0.75000000  0.75000000  0.75000000  1
  Cs  Cs2  1  0.00000000  0.00000000  0.00000000  1
  Tl  Tl3  1  0.50000000  0.50000000  0.50000000  1
  Br  Br4  1  0.75000000  0.75000000  0.25000000  1
  Br  Br5  1  0.25000000  0.25000000  0.75000000  1
  Br  Br6  1  0.75000000  0.25000000  0.75000000  1
  Br  Br7  1  0.25000000  0.75000000  0.25000000  1
  Br  Br8  1  0.25000000  0.75000000  0.75000000  1
  Br  Br9  1  0.75000000  0.25000000  0.25000000  1
