# generated using pymatgen
data_LaCu2HgCl6
_symmetry_space_group_name_H-M   'P 1'
_cell_length_a   6.51034685
_cell_length_b   6.51034661
_cell_length_c   6.51034700
_cell_angle_alpha   60.00000310
_cell_angle_beta   60.00000430
_cell_angle_gamma   60.00000460
_symmetry_Int_Tables_number   1
_chemical_formula_structural   LaCu2HgCl6
_chemical_formula_sum   'La1 Cu2 Hg1 Cl6'
_cell_volume   195.11803617
_cell_formula_units_Z   1
loop_
 _symmetry_equiv_pos_site_id
 _symmetry_equiv_pos_as_xyz
  1  'x, y, z'
loop_
 _atom_site_type_symbol
 _atom_site_label
 _atom_site_symmetry_multiplicity
 _atom_site_fract_x
 _atom_site_fract_y
 _atom_site_fract_z
 _atom_site_occupancy
  La  La0  1  0.25000000  0.25000000  0.25000000  1
  Hg  Hg1  1  0.75000000  0.75000000  0.75000000  1
  Cu  Cu2  1  0.00000000  0.00000000  0.00000000  1
  Cu  Cu3  1  0.50000000  0.50000000  0.50000000  1
  Cl  Cl4  1  0.75000000  0.75000000  0.25000000  1
  Cl  Cl5  1  0.25000000  0.25000000  0.75000000  1
  Cl  Cl6  1  0.75000000  0.25000000  0.75000000  1
  Cl  Cl7  1  0.25000000  0.75000000  0.25000000  1
  Cl  Cl8  1  0.25000000  0.75000000  0.75000000  1
  Cl  Cl9  1  0.75000000  0.25000000  0.25000000  1
