# generated using pymatgen
data_CsLiLaHgCl6
_symmetry_space_group_name_H-M   'P 1'
_cell_length_a   9.07466079
_cell_length_b   9.07466102
_cell_length_c   9.07466100
_cell_angle_alpha   60.00000370
_cell_angle_beta   60.00000287
_cell_angle_gamma   60.00000275
_symmetry_Int_Tables_number   1
_chemical_formula_structural   CsLiLaHgCl6
_chemical_formula_sum   'Cs1 Li1 La1 Hg1 Cl6'
_cell_volume   528.41635850
_cell_formula_units_Z   1
loop_
 _symmetry_equiv_pos_site_id
 _symmetry_equiv_pos_as_xyz
  1  'x, y, z'
loop_
 _atom_site_type_symbol
 _atom_site_label
 _atom_site_symmetry_multiplicity
 _atom_site_fract_x
 _atom_site_fract_y
 _atom_site_fract_z
 _atom_site_occupancy
  La  La0  1  0.25000000  0.25000000  0.25000000  1
  Hg  Hg1  1  0.75000000  0.75000000  0.75000000  1
  Li  Li2  1  0.00000000  0.00000000  0.00000000  1
  Cs  Cs3  1  0.50000000  0.50000000  0.50000000  1
  Cl  Cl4  1  0.75000000  0.75000000  0.25000000  1
  Cl  Cl5  1  0.25000000  0.25000000  0.75000000  1
  Cl  Cl6  1  0.75000000  0.25000000  0.75000000  1
  Cl  Cl7  1  0.25000000  0.75000000  0.25000000  1
  Cl  Cl8  1  0.25000000  0.75000000  0.75000000  1
  Cl  Cl9  1  0.75000000  0.25000000  0.25000000  1
