# generated using pymatgen
data_Li2MgBeBr6
_symmetry_space_group_name_H-M   'P 1'
_cell_length_a   7.20643048
_cell_length_b   7.20643040
_cell_length_c   7.20643100
_cell_angle_alpha   60.00000184
_cell_angle_beta   60.00000218
_cell_angle_gamma   60.00000376
_symmetry_Int_Tables_number   1
_chemical_formula_structural   Li2MgBeBr6
_chemical_formula_sum   'Li2 Mg1 Be1 Br6'
_cell_volume   264.63401029
_cell_formula_units_Z   1
loop_
 _symmetry_equiv_pos_site_id
 _symmetry_equiv_pos_as_xyz
  1  'x, y, z'
loop_
 _atom_site_type_symbol
 _atom_site_label
 _atom_site_symmetry_multiplicity
 _atom_site_fract_x
 _atom_site_fract_y
 _atom_site_fract_z
 _atom_site_occupancy
  Li  Li0  1  0.25000000  0.25000000  0.25000000  1
  Li  Li1  1  0.75000000  0.75000000  0.75000000  1
  Be  Be2  1  0.00000000  0.00000000  0.00000000  1
  Mg  Mg3  1  0.50000000  0.50000000  0.50000000  1
  Br  Br4  1  0.75000000  0.75000000  0.25000000  1
  Br  Br5  1  0.25000000  0.25000000  0.75000000  1
  Br  Br6  1  0.75000000  0.25000000  0.75000000  1
  Br  Br7  1  0.25000000  0.75000000  0.25000000  1
  Br  Br8  1  0.25000000  0.75000000  0.75000000  1
  Br  Br9  1  0.75000000  0.25000000  0.25000000  1
