# generated using pymatgen
data_RbLi2RhCl6
_symmetry_space_group_name_H-M   'P 1'
_cell_length_a   8.53482142
_cell_length_b   8.53482123
_cell_length_c   8.53482100
_cell_angle_alpha   59.99999702
_cell_angle_beta   59.99999776
_cell_angle_gamma   59.99999553
_symmetry_Int_Tables_number   1
_chemical_formula_structural   RbLi2RhCl6
_chemical_formula_sum   'Rb1 Li2 Rh1 Cl6'
_cell_volume   439.61070036
_cell_formula_units_Z   1
loop_
 _symmetry_equiv_pos_site_id
 _symmetry_equiv_pos_as_xyz
  1  'x, y, z'
loop_
 _atom_site_type_symbol
 _atom_site_label
 _atom_site_symmetry_multiplicity
 _atom_site_fract_x
 _atom_site_fract_y
 _atom_site_fract_z
 _atom_site_occupancy
  Li  Li0  1  0.25000000  0.25000000  0.25000000  1
  Li  Li1  1  0.75000000  0.75000000  0.75000000  1
  Rb  Rb2  1  0.00000000  0.00000000  0.00000000  1
  Rh  Rh3  1  0.50000000  0.50000000  0.50000000  1
  Cl  Cl4  1  0.75000000  0.75000000  0.25000000  1
  Cl  Cl5  1  0.25000000  0.25000000  0.75000000  1
  Cl  Cl6  1  0.75000000  0.25000000  0.75000000  1
  Cl  Cl7  1  0.25000000  0.75000000  0.25000000  1
  Cl  Cl8  1  0.25000000  0.75000000  0.75000000  1
  Cl  Cl9  1  0.75000000  0.25000000  0.25000000  1
