# generated using pymatgen
data_Li2ScAgCl6
_symmetry_space_group_name_H-M   'P 1'
_cell_length_a   7.35462468
_cell_length_b   7.35462451
_cell_length_c   7.35462500
_cell_angle_alpha   60.00000229
_cell_angle_beta   60.00000304
_cell_angle_gamma   60.00000388
_symmetry_Int_Tables_number   1
_chemical_formula_structural   Li2ScAgCl6
_chemical_formula_sum   'Li2 Sc1 Ag1 Cl6'
_cell_volume   281.29796176
_cell_formula_units_Z   1
loop_
 _symmetry_equiv_pos_site_id
 _symmetry_equiv_pos_as_xyz
  1  'x, y, z'
loop_
 _atom_site_type_symbol
 _atom_site_label
 _atom_site_symmetry_multiplicity
 _atom_site_fract_x
 _atom_site_fract_y
 _atom_site_fract_z
 _atom_site_occupancy
  Li  Li0  1  0.25000000  0.25000000  0.25000000  1
  Li  Li1  1  0.75000000  0.75000000  0.75000000  1
  Sc  Sc2  1  0.00000000  0.00000000  0.00000000  1
  Ag  Ag3  1  0.50000000  0.50000000  0.50000000  1
  Cl  Cl4  1  0.75000000  0.75000000  0.25000000  1
  Cl  Cl5  1  0.25000000  0.25000000  0.75000000  1
  Cl  Cl6  1  0.75000000  0.25000000  0.75000000  1
  Cl  Cl7  1  0.25000000  0.75000000  0.25000000  1
  Cl  Cl8  1  0.25000000  0.75000000  0.75000000  1
  Cl  Cl9  1  0.75000000  0.25000000  0.25000000  1
