# generated using pymatgen
data_LiZnAgPtF6
_symmetry_space_group_name_H-M   'P 1'
_cell_length_a   5.70801252
_cell_length_b   5.70801255
_cell_length_c   5.70801200
_cell_angle_alpha   60.00000318
_cell_angle_beta   60.00000303
_cell_angle_gamma   60.00000551
_symmetry_Int_Tables_number   1
_chemical_formula_structural   LiZnAgPtF6
_chemical_formula_sum   'Li1 Zn1 Ag1 Pt1 F6'
_cell_volume   131.50423962
_cell_formula_units_Z   1
loop_
 _symmetry_equiv_pos_site_id
 _symmetry_equiv_pos_as_xyz
  1  'x, y, z'
loop_
 _atom_site_type_symbol
 _atom_site_label
 _atom_site_symmetry_multiplicity
 _atom_site_fract_x
 _atom_site_fract_y
 _atom_site_fract_z
 _atom_site_occupancy
  Li  Li0  1  0.25000000  0.25000000  0.25000000  1
  Ag  Ag1  1  0.75000000  0.75000000  0.75000000  1
  Zn  Zn2  1  0.00000000  0.00000000  0.00000000  1
  Pt  Pt3  1  0.50000000  0.50000000  0.50000000  1
  F  F4  1  0.75000000  0.75000000  0.25000000  1
  F  F5  1  0.25000000  0.25000000  0.75000000  1
  F  F6  1  0.75000000  0.25000000  0.75000000  1
  F  F7  1  0.25000000  0.75000000  0.25000000  1
  F  F8  1  0.25000000  0.75000000  0.75000000  1
  F  F9  1  0.75000000  0.25000000  0.25000000  1
