# generated using pymatgen
data_NaLiBeHgF6
_symmetry_space_group_name_H-M   'P 1'
_cell_length_a   6.98238097
_cell_length_b   6.98238114
_cell_length_c   6.98238100
_cell_angle_alpha   59.99999593
_cell_angle_beta   59.99999511
_cell_angle_gamma   59.99999482
_symmetry_Int_Tables_number   1
_chemical_formula_structural   NaLiBeHgF6
_chemical_formula_sum   'Na1 Li1 Be1 Hg1 F6'
_cell_volume   240.71080817
_cell_formula_units_Z   1
loop_
 _symmetry_equiv_pos_site_id
 _symmetry_equiv_pos_as_xyz
  1  'x, y, z'
loop_
 _atom_site_type_symbol
 _atom_site_label
 _atom_site_symmetry_multiplicity
 _atom_site_fract_x
 _atom_site_fract_y
 _atom_site_fract_z
 _atom_site_occupancy
  Li  Li0  1  0.25000000  0.25000000  0.25000000  1
  Be  Be1  1  0.75000000  0.75000000  0.75000000  1
  Na  Na2  1  0.00000000  0.00000000  0.00000000  1
  Hg  Hg3  1  0.50000000  0.50000000  0.50000000  1
  F  F4  1  0.75000000  0.75000000  0.25000000  1
  F  F5  1  0.25000000  0.25000000  0.75000000  1
  F  F6  1  0.75000000  0.25000000  0.75000000  1
  F  F7  1  0.25000000  0.75000000  0.25000000  1
  F  F8  1  0.25000000  0.75000000  0.75000000  1
  F  F9  1  0.75000000  0.25000000  0.25000000  1
