# generated using pymatgen
data_CsLiBePbCl6
_symmetry_space_group_name_H-M   'P 1'
_cell_length_a   7.92852383
_cell_length_b   7.92852347
_cell_length_c   7.92852300
_cell_angle_alpha   59.99999781
_cell_angle_beta   59.99999928
_cell_angle_gamma   59.99999564
_symmetry_Int_Tables_number   1
_chemical_formula_structural   CsLiBePbCl6
_chemical_formula_sum   'Cs1 Li1 Be1 Pb1 Cl6'
_cell_volume   352.42111494
_cell_formula_units_Z   1
loop_
 _symmetry_equiv_pos_site_id
 _symmetry_equiv_pos_as_xyz
  1  'x, y, z'
loop_
 _atom_site_type_symbol
 _atom_site_label
 _atom_site_symmetry_multiplicity
 _atom_site_fract_x
 _atom_site_fract_y
 _atom_site_fract_z
 _atom_site_occupancy
  Li  Li0  1  0.25000000  0.25000000  0.25000000  1
  Cs  Cs1  1  0.75000000  0.75000000  0.75000000  1
  Be  Be2  1  0.00000000  0.00000000  0.00000000  1
  Pb  Pb3  1  0.50000000  0.50000000  0.50000000  1
  Cl  Cl4  1  0.75000000  0.75000000  0.25000000  1
  Cl  Cl5  1  0.25000000  0.25000000  0.75000000  1
  Cl  Cl6  1  0.75000000  0.25000000  0.75000000  1
  Cl  Cl7  1  0.25000000  0.75000000  0.25000000  1
  Cl  Cl8  1  0.25000000  0.75000000  0.75000000  1
  Cl  Cl9  1  0.75000000  0.25000000  0.25000000  1
