# generated using pymatgen
data_CsLiMgNiI6
_symmetry_space_group_name_H-M   'P 1'
_cell_length_a   8.01210931
_cell_length_b   8.01210968
_cell_length_c   8.01211000
_cell_angle_alpha   59.99999866
_cell_angle_beta   59.99999715
_cell_angle_gamma   59.99999723
_symmetry_Int_Tables_number   1
_chemical_formula_structural   CsLiMgNiI6
_chemical_formula_sum   'Cs1 Li1 Mg1 Ni1 I6'
_cell_volume   363.68520488
_cell_formula_units_Z   1
loop_
 _symmetry_equiv_pos_site_id
 _symmetry_equiv_pos_as_xyz
  1  'x, y, z'
loop_
 _atom_site_type_symbol
 _atom_site_label
 _atom_site_symmetry_multiplicity
 _atom_site_fract_x
 _atom_site_fract_y
 _atom_site_fract_z
 _atom_site_occupancy
  Li  Li0  1  0.25000000  0.25000000  0.25000000  1
  Cs  Cs1  1  0.75000000  0.75000000  0.75000000  1
  Mg  Mg2  1  0.00000000  0.00000000  0.00000000  1
  Ni  Ni3  1  0.50000000  0.50000000  0.50000000  1
  I  I4  1  0.75000000  0.75000000  0.25000000  1
  I  I5  1  0.25000000  0.25000000  0.75000000  1
  I  I6  1  0.75000000  0.25000000  0.75000000  1
  I  I7  1  0.25000000  0.75000000  0.25000000  1
  I  I8  1  0.25000000  0.75000000  0.75000000  1
  I  I9  1  0.75000000  0.25000000  0.25000000  1
