# generated using pymatgen
data_LiCuHgRhCl6
_symmetry_space_group_name_H-M   'P 1'
_cell_length_a   7.36171904
_cell_length_b   7.36171836
_cell_length_c   7.36171900
_cell_angle_alpha   60.00000164
_cell_angle_beta   60.00000466
_cell_angle_gamma   60.00000268
_symmetry_Int_Tables_number   1
_chemical_formula_structural   LiCuHgRhCl6
_chemical_formula_sum   'Li1 Cu1 Hg1 Rh1 Cl6'
_cell_volume   282.11274384
_cell_formula_units_Z   1
loop_
 _symmetry_equiv_pos_site_id
 _symmetry_equiv_pos_as_xyz
  1  'x, y, z'
loop_
 _atom_site_type_symbol
 _atom_site_label
 _atom_site_symmetry_multiplicity
 _atom_site_fract_x
 _atom_site_fract_y
 _atom_site_fract_z
 _atom_site_occupancy
  Li  Li0  1  0.25000000  0.25000000  0.25000000  1
  Cu  Cu1  1  0.75000000  0.75000000  0.75000000  1
  Rh  Rh2  1  0.00000000  0.00000000  0.00000000  1
  Hg  Hg3  1  0.50000000  0.50000000  0.50000000  1
  Cl  Cl4  1  0.75000000  0.75000000  0.25000000  1
  Cl  Cl5  1  0.25000000  0.25000000  0.75000000  1
  Cl  Cl6  1  0.75000000  0.25000000  0.75000000  1
  Cl  Cl7  1  0.25000000  0.75000000  0.25000000  1
  Cl  Cl8  1  0.25000000  0.75000000  0.75000000  1
  Cl  Cl9  1  0.75000000  0.25000000  0.25000000  1
