# generated using pymatgen
data_CsLiAlCuCl6
_symmetry_space_group_name_H-M   'P 1'
_cell_length_a   9.01242971
_cell_length_b   9.01242964
_cell_length_c   9.01243000
_cell_angle_alpha   59.99999869
_cell_angle_beta   59.99999895
_cell_angle_gamma   60.00000116
_symmetry_Int_Tables_number   1
_chemical_formula_structural   CsLiAlCuCl6
_chemical_formula_sum   'Cs1 Li1 Al1 Cu1 Cl6'
_cell_volume   517.61956196
_cell_formula_units_Z   1
loop_
 _symmetry_equiv_pos_site_id
 _symmetry_equiv_pos_as_xyz
  1  'x, y, z'
loop_
 _atom_site_type_symbol
 _atom_site_label
 _atom_site_symmetry_multiplicity
 _atom_site_fract_x
 _atom_site_fract_y
 _atom_site_fract_z
 _atom_site_occupancy
  Li  Li0  1  0.25000000  0.25000000  0.25000000  1
  Cu  Cu1  1  0.75000000  0.75000000  0.75000000  1
  Al  Al2  1  0.00000000  0.00000000  0.00000000  1
  Cs  Cs3  1  0.50000000  0.50000000  0.50000000  1
  Cl  Cl4  1  0.75000000  0.75000000  0.25000000  1
  Cl  Cl5  1  0.25000000  0.25000000  0.75000000  1
  Cl  Cl6  1  0.75000000  0.25000000  0.75000000  1
  Cl  Cl7  1  0.25000000  0.75000000  0.25000000  1
  Cl  Cl8  1  0.25000000  0.75000000  0.75000000  1
  Cl  Cl9  1  0.75000000  0.25000000  0.25000000  1
