# generated using pymatgen
data_NaLiSmCuF6
_symmetry_space_group_name_H-M   'P 1'
_cell_length_a   6.21347508
_cell_length_b   6.21347525
_cell_length_c   6.21347500
_cell_angle_alpha   59.99999601
_cell_angle_beta   59.99999510
_cell_angle_gamma   59.99999457
_symmetry_Int_Tables_number   1
_chemical_formula_structural   NaLiSmCuF6
_chemical_formula_sum   'Na1 Li1 Sm1 Cu1 F6'
_cell_volume   169.62452490
_cell_formula_units_Z   1
loop_
 _symmetry_equiv_pos_site_id
 _symmetry_equiv_pos_as_xyz
  1  'x, y, z'
loop_
 _atom_site_type_symbol
 _atom_site_label
 _atom_site_symmetry_multiplicity
 _atom_site_fract_x
 _atom_site_fract_y
 _atom_site_fract_z
 _atom_site_occupancy
  Li  Li0  1  0.25000000  0.25000000  0.25000000  1
  Cu  Cu1  1  0.75000000  0.75000000  0.75000000  1
  Na  Na2  1  0.00000000  0.00000000  0.00000000  1
  Sm  Sm3  1  0.50000000  0.50000000  0.50000000  1
  F  F4  1  0.75000000  0.75000000  0.25000000  1
  F  F5  1  0.25000000  0.25000000  0.75000000  1
  F  F6  1  0.75000000  0.25000000  0.75000000  1
  F  F7  1  0.25000000  0.75000000  0.25000000  1
  F  F8  1  0.25000000  0.75000000  0.75000000  1
  F  F9  1  0.75000000  0.25000000  0.25000000  1
