# generated using pymatgen
data_NaLiEuMgBr6
_symmetry_space_group_name_H-M   'P 1'
_cell_length_a   7.65830193
_cell_length_b   7.65830239
_cell_length_c   7.65830200
_cell_angle_alpha   60.00000167
_cell_angle_beta   59.99999969
_cell_angle_gamma   60.00000427
_symmetry_Int_Tables_number   1
_chemical_formula_structural   NaLiEuMgBr6
_chemical_formula_sum   'Na1 Li1 Eu1 Mg1 Br6'
_cell_volume   317.60147006
_cell_formula_units_Z   1
loop_
 _symmetry_equiv_pos_site_id
 _symmetry_equiv_pos_as_xyz
  1  'x, y, z'
loop_
 _atom_site_type_symbol
 _atom_site_label
 _atom_site_symmetry_multiplicity
 _atom_site_fract_x
 _atom_site_fract_y
 _atom_site_fract_z
 _atom_site_occupancy
  Li  Li0  1  0.25000000  0.25000000  0.25000000  1
  Eu  Eu1  1  0.75000000  0.75000000  0.75000000  1
  Na  Na2  1  0.00000000  0.00000000  0.00000000  1
  Mg  Mg3  1  0.50000000  0.50000000  0.50000000  1
  Br  Br4  1  0.75000000  0.75000000  0.25000000  1
  Br  Br5  1  0.25000000  0.25000000  0.75000000  1
  Br  Br6  1  0.75000000  0.25000000  0.75000000  1
  Br  Br7  1  0.25000000  0.75000000  0.25000000  1
  Br  Br8  1  0.25000000  0.75000000  0.75000000  1
  Br  Br9  1  0.75000000  0.25000000  0.25000000  1
