# generated using pymatgen
data_LiZnNiHgF6
_symmetry_space_group_name_H-M   'P 1'
_cell_length_a   5.59863960
_cell_length_b   5.59863961
_cell_length_c   5.59863900
_cell_angle_alpha   59.99999772
_cell_angle_beta   59.99999761
_cell_angle_gamma   59.99999851
_symmetry_Int_Tables_number   1
_chemical_formula_structural   LiZnNiHgF6
_chemical_formula_sum   'Li1 Zn1 Ni1 Hg1 F6'
_cell_volume   124.08876754
_cell_formula_units_Z   1
loop_
 _symmetry_equiv_pos_site_id
 _symmetry_equiv_pos_as_xyz
  1  'x, y, z'
loop_
 _atom_site_type_symbol
 _atom_site_label
 _atom_site_symmetry_multiplicity
 _atom_site_fract_x
 _atom_site_fract_y
 _atom_site_fract_z
 _atom_site_occupancy
  Li  Li0  1  0.25000000  0.25000000  0.25000000  1
  Hg  Hg1  1  0.75000000  0.75000000  0.75000000  1
  Ni  Ni2  1  0.00000000  0.00000000  0.00000000  1
  Zn  Zn3  1  0.50000000  0.50000000  0.50000000  1
  F  F4  1  0.75000000  0.75000000  0.25000000  1
  F  F5  1  0.25000000  0.25000000  0.75000000  1
  F  F6  1  0.75000000  0.25000000  0.75000000  1
  F  F7  1  0.25000000  0.75000000  0.25000000  1
  F  F8  1  0.25000000  0.75000000  0.75000000  1
  F  F9  1  0.75000000  0.25000000  0.25000000  1
