# generated using pymatgen
data_LiGdCuHgF6
_symmetry_space_group_name_H-M   'P 1'
_cell_length_a   6.14799315
_cell_length_b   6.14799312
_cell_length_c   6.14799300
_cell_angle_alpha   59.99999526
_cell_angle_beta   59.99999540
_cell_angle_gamma   59.99999369
_symmetry_Int_Tables_number   1
_chemical_formula_structural   LiGdCuHgF6
_chemical_formula_sum   'Li1 Gd1 Cu1 Hg1 F6'
_cell_volume   164.31797060
_cell_formula_units_Z   1
loop_
 _symmetry_equiv_pos_site_id
 _symmetry_equiv_pos_as_xyz
  1  'x, y, z'
loop_
 _atom_site_type_symbol
 _atom_site_label
 _atom_site_symmetry_multiplicity
 _atom_site_fract_x
 _atom_site_fract_y
 _atom_site_fract_z
 _atom_site_occupancy
  Li  Li0  1  0.25000000  0.25000000  0.25000000  1
  Hg  Hg1  1  0.75000000  0.75000000  0.75000000  1
  Cu  Cu2  1  0.00000000  0.00000000  0.00000000  1
  Gd  Gd3  1  0.50000000  0.50000000  0.50000000  1
  F  F4  1  0.75000000  0.75000000  0.25000000  1
  F  F5  1  0.25000000  0.25000000  0.75000000  1
  F  F6  1  0.75000000  0.25000000  0.75000000  1
  F  F7  1  0.25000000  0.75000000  0.25000000  1
  F  F8  1  0.25000000  0.75000000  0.75000000  1
  F  F9  1  0.75000000  0.25000000  0.25000000  1
