# generated using pymatgen
data_CsLiMnPbCl6
_symmetry_space_group_name_H-M   'P 1'
_cell_length_a   8.95506854
_cell_length_b   8.95506864
_cell_length_c   8.95506900
_cell_angle_alpha   60.00000237
_cell_angle_beta   60.00000198
_cell_angle_gamma   59.99999958
_symmetry_Int_Tables_number   1
_chemical_formula_structural   CsLiMnPbCl6
_chemical_formula_sum   'Cs1 Li1 Mn1 Pb1 Cl6'
_cell_volume   507.79893389
_cell_formula_units_Z   1
loop_
 _symmetry_equiv_pos_site_id
 _symmetry_equiv_pos_as_xyz
  1  'x, y, z'
loop_
 _atom_site_type_symbol
 _atom_site_label
 _atom_site_symmetry_multiplicity
 _atom_site_fract_x
 _atom_site_fract_y
 _atom_site_fract_z
 _atom_site_occupancy
  Li  Li0  1  0.25000000  0.25000000  0.25000000  1
  Mn  Mn1  1  0.75000000  0.75000000  0.75000000  1
  Cs  Cs2  1  0.00000000  0.00000000  0.00000000  1
  Pb  Pb3  1  0.50000000  0.50000000  0.50000000  1
  Cl  Cl4  1  0.75000000  0.75000000  0.25000000  1
  Cl  Cl5  1  0.25000000  0.25000000  0.75000000  1
  Cl  Cl6  1  0.75000000  0.25000000  0.75000000  1
  Cl  Cl7  1  0.25000000  0.75000000  0.25000000  1
  Cl  Cl8  1  0.25000000  0.75000000  0.75000000  1
  Cl  Cl9  1  0.75000000  0.25000000  0.25000000  1
