# generated using pymatgen
data_NaLiCuAsBr6
_symmetry_space_group_name_H-M   'P 1'
_cell_length_a   7.29114047
_cell_length_b   7.29114097
_cell_length_c   7.29114100
_cell_angle_alpha   60.00000438
_cell_angle_beta   60.00000211
_cell_angle_gamma   60.00000368
_symmetry_Int_Tables_number   1
_chemical_formula_structural   NaLiCuAsBr6
_chemical_formula_sum   'Na1 Li1 Cu1 As1 Br6'
_cell_volume   274.07630613
_cell_formula_units_Z   1
loop_
 _symmetry_equiv_pos_site_id
 _symmetry_equiv_pos_as_xyz
  1  'x, y, z'
loop_
 _atom_site_type_symbol
 _atom_site_label
 _atom_site_symmetry_multiplicity
 _atom_site_fract_x
 _atom_site_fract_y
 _atom_site_fract_z
 _atom_site_occupancy
  Li  Li0  1  0.25000000  0.25000000  0.25000000  1
  Na  Na1  1  0.75000000  0.75000000  0.75000000  1
  Cu  Cu2  1  0.00000000  0.00000000  0.00000000  1
  As  As3  1  0.50000000  0.50000000  0.50000000  1
  Br  Br4  1  0.75000000  0.75000000  0.25000000  1
  Br  Br5  1  0.25000000  0.25000000  0.75000000  1
  Br  Br6  1  0.75000000  0.25000000  0.75000000  1
  Br  Br7  1  0.25000000  0.75000000  0.25000000  1
  Br  Br8  1  0.25000000  0.75000000  0.75000000  1
  Br  Br9  1  0.75000000  0.25000000  0.25000000  1
