# generated using pymatgen
data_NaLiBeFeI6
_symmetry_space_group_name_H-M   'P 1'
_cell_length_a   7.71019498
_cell_length_b   7.71019499
_cell_length_c   7.71019500
_cell_angle_alpha   60.00000424
_cell_angle_beta   60.00000419
_cell_angle_gamma   60.00000037
_symmetry_Int_Tables_number   1
_chemical_formula_structural   NaLiBeFeI6
_chemical_formula_sum   'Na1 Li1 Be1 Fe1 I6'
_cell_volume   324.10155534
_cell_formula_units_Z   1
loop_
 _symmetry_equiv_pos_site_id
 _symmetry_equiv_pos_as_xyz
  1  'x, y, z'
loop_
 _atom_site_type_symbol
 _atom_site_label
 _atom_site_symmetry_multiplicity
 _atom_site_fract_x
 _atom_site_fract_y
 _atom_site_fract_z
 _atom_site_occupancy
  Li  Li0  1  0.25000000  0.25000000  0.25000000  1
  Na  Na1  1  0.75000000  0.75000000  0.75000000  1
  Be  Be2  1  0.00000000  0.00000000  0.00000000  1
  Fe  Fe3  1  0.50000000  0.50000000  0.50000000  1
  I  I4  1  0.75000000  0.75000000  0.25000000  1
  I  I5  1  0.25000000  0.25000000  0.75000000  1
  I  I6  1  0.75000000  0.25000000  0.75000000  1
  I  I7  1  0.25000000  0.75000000  0.25000000  1
  I  I8  1  0.25000000  0.75000000  0.75000000  1
  I  I9  1  0.75000000  0.25000000  0.25000000  1
