# generated using pymatgen
data_NaLiDyHgCl6
_symmetry_space_group_name_H-M   'P 1'
_cell_length_a   7.62932006
_cell_length_b   7.62932026
_cell_length_c   7.62932100
_cell_angle_alpha   60.00000111
_cell_angle_beta   60.00000025
_cell_angle_gamma   60.00000103
_symmetry_Int_Tables_number   1
_chemical_formula_structural   NaLiDyHgCl6
_chemical_formula_sum   'Na1 Li1 Dy1 Hg1 Cl6'
_cell_volume   314.00934862
_cell_formula_units_Z   1
loop_
 _symmetry_equiv_pos_site_id
 _symmetry_equiv_pos_as_xyz
  1  'x, y, z'
loop_
 _atom_site_type_symbol
 _atom_site_label
 _atom_site_symmetry_multiplicity
 _atom_site_fract_x
 _atom_site_fract_y
 _atom_site_fract_z
 _atom_site_occupancy
  Li  Li0  1  0.25000000  0.25000000  0.25000000  1
  Na  Na1  1  0.75000000  0.75000000  0.75000000  1
  Dy  Dy2  1  0.00000000  0.00000000  0.00000000  1
  Hg  Hg3  1  0.50000000  0.50000000  0.50000000  1
  Cl  Cl4  1  0.75000000  0.75000000  0.25000000  1
  Cl  Cl5  1  0.25000000  0.25000000  0.75000000  1
  Cl  Cl6  1  0.75000000  0.25000000  0.75000000  1
  Cl  Cl7  1  0.25000000  0.75000000  0.25000000  1
  Cl  Cl8  1  0.25000000  0.75000000  0.75000000  1
  Cl  Cl9  1  0.75000000  0.25000000  0.25000000  1
