# generated using pymatgen
data_NaLiPd2F6
_symmetry_space_group_name_H-M   'P 1'
_cell_length_a   5.93454995
_cell_length_b   5.93455017
_cell_length_c   5.93455000
_cell_angle_alpha   60.00000095
_cell_angle_beta   59.99999971
_cell_angle_gamma   60.00000105
_symmetry_Int_Tables_number   1
_chemical_formula_structural   NaLiPd2F6
_chemical_formula_sum   'Na1 Li1 Pd2 F6'
_cell_volume   147.79113898
_cell_formula_units_Z   1
loop_
 _symmetry_equiv_pos_site_id
 _symmetry_equiv_pos_as_xyz
  1  'x, y, z'
loop_
 _atom_site_type_symbol
 _atom_site_label
 _atom_site_symmetry_multiplicity
 _atom_site_fract_x
 _atom_site_fract_y
 _atom_site_fract_z
 _atom_site_occupancy
  Li  Li0  1  0.25000000  0.25000000  0.25000000  1
  Na  Na1  1  0.75000000  0.75000000  0.75000000  1
  Pd  Pd2  1  0.00000000  0.00000000  0.00000000  1
  Pd  Pd3  1  0.50000000  0.50000000  0.50000000  1
  F  F4  1  0.75000000  0.75000000  0.25000000  1
  F  F5  1  0.25000000  0.25000000  0.75000000  1
  F  F6  1  0.75000000  0.25000000  0.75000000  1
  F  F7  1  0.25000000  0.75000000  0.25000000  1
  F  F8  1  0.25000000  0.75000000  0.75000000  1
  F  F9  1  0.75000000  0.25000000  0.25000000  1
