# generated using pymatgen
data_NaLiHgPdI6
_symmetry_space_group_name_H-M   'P 1'
_cell_length_a   8.20014845
_cell_length_b   8.20014903
_cell_length_c   8.20014900
_cell_angle_alpha   60.00000414
_cell_angle_beta   60.00000181
_cell_angle_gamma   60.00000353
_symmetry_Int_Tables_number   1
_chemical_formula_structural   NaLiHgPdI6
_chemical_formula_sum   'Na1 Li1 Hg1 Pd1 I6'
_cell_volume   389.89730800
_cell_formula_units_Z   1
loop_
 _symmetry_equiv_pos_site_id
 _symmetry_equiv_pos_as_xyz
  1  'x, y, z'
loop_
 _atom_site_type_symbol
 _atom_site_label
 _atom_site_symmetry_multiplicity
 _atom_site_fract_x
 _atom_site_fract_y
 _atom_site_fract_z
 _atom_site_occupancy
  Li  Li0  1  0.25000000  0.25000000  0.25000000  1
  Na  Na1  1  0.75000000  0.75000000  0.75000000  1
  Pd  Pd2  1  0.00000000  0.00000000  0.00000000  1
  Hg  Hg3  1  0.50000000  0.50000000  0.50000000  1
  I  I4  1  0.75000000  0.75000000  0.25000000  1
  I  I5  1  0.25000000  0.25000000  0.75000000  1
  I  I6  1  0.75000000  0.25000000  0.75000000  1
  I  I7  1  0.25000000  0.75000000  0.25000000  1
  I  I8  1  0.25000000  0.75000000  0.75000000  1
  I  I9  1  0.75000000  0.25000000  0.25000000  1
