# generated using pymatgen
data_NaLiCaSnI6
_symmetry_space_group_name_H-M   'P 1'
_cell_length_a   8.75924106
_cell_length_b   8.75924096
_cell_length_c   8.75924100
_cell_angle_alpha   59.99999607
_cell_angle_beta   59.99999644
_cell_angle_gamma   59.99999726
_symmetry_Int_Tables_number   1
_chemical_formula_structural   NaLiCaSnI6
_chemical_formula_sum   'Na1 Li1 Ca1 Sn1 I6'
_cell_volume   475.20871447
_cell_formula_units_Z   1
loop_
 _symmetry_equiv_pos_site_id
 _symmetry_equiv_pos_as_xyz
  1  'x, y, z'
loop_
 _atom_site_type_symbol
 _atom_site_label
 _atom_site_symmetry_multiplicity
 _atom_site_fract_x
 _atom_site_fract_y
 _atom_site_fract_z
 _atom_site_occupancy
  Li  Li0  1  0.25000000  0.25000000  0.25000000  1
  Na  Na1  1  0.75000000  0.75000000  0.75000000  1
  Ca  Ca2  1  0.00000000  0.00000000  0.00000000  1
  Sn  Sn3  1  0.50000000  0.50000000  0.50000000  1
  I  I4  1  0.75000000  0.75000000  0.25000000  1
  I  I5  1  0.25000000  0.25000000  0.75000000  1
  I  I6  1  0.75000000  0.25000000  0.75000000  1
  I  I7  1  0.25000000  0.75000000  0.25000000  1
  I  I8  1  0.25000000  0.75000000  0.75000000  1
  I  I9  1  0.75000000  0.25000000  0.25000000  1
