# generated using pymatgen
data_RbLiNdAuCl6
_symmetry_space_group_name_H-M   'P 1'
_cell_length_a   8.63384603
_cell_length_b   8.63384631
_cell_length_c   8.63384600
_cell_angle_alpha   60.00000120
_cell_angle_beta   60.00000010
_cell_angle_gamma   59.99999895
_symmetry_Int_Tables_number   1
_chemical_formula_structural   RbLiNdAuCl6
_chemical_formula_sum   'Rb1 Li1 Nd1 Au1 Cl6'
_cell_volume   455.09065118
_cell_formula_units_Z   1
loop_
 _symmetry_equiv_pos_site_id
 _symmetry_equiv_pos_as_xyz
  1  'x, y, z'
loop_
 _atom_site_type_symbol
 _atom_site_label
 _atom_site_symmetry_multiplicity
 _atom_site_fract_x
 _atom_site_fract_y
 _atom_site_fract_z
 _atom_site_occupancy
  Li  Li0  1  0.25000000  0.25000000  0.25000000  1
  Nd  Nd1  1  0.75000000  0.75000000  0.75000000  1
  Rb  Rb2  1  0.00000000  0.00000000  0.00000000  1
  Au  Au3  1  0.50000000  0.50000000  0.50000000  1
  Cl  Cl4  1  0.75000000  0.75000000  0.25000000  1
  Cl  Cl5  1  0.25000000  0.25000000  0.75000000  1
  Cl  Cl6  1  0.75000000  0.25000000  0.75000000  1
  Cl  Cl7  1  0.25000000  0.75000000  0.25000000  1
  Cl  Cl8  1  0.25000000  0.75000000  0.75000000  1
  Cl  Cl9  1  0.75000000  0.25000000  0.25000000  1
