# generated using pymatgen
data_RbLiCrNiCl6
_symmetry_space_group_name_H-M   'P 1'
_cell_length_a   8.60347843
_cell_length_b   8.60347846
_cell_length_c   8.60347800
_cell_angle_alpha   60.00000179
_cell_angle_beta   60.00000164
_cell_angle_gamma   60.00000346
_symmetry_Int_Tables_number   1
_chemical_formula_structural   RbLiCrNiCl6
_chemical_formula_sum   'Rb1 Li1 Cr1 Ni1 Cl6'
_cell_volume   450.30547486
_cell_formula_units_Z   1
loop_
 _symmetry_equiv_pos_site_id
 _symmetry_equiv_pos_as_xyz
  1  'x, y, z'
loop_
 _atom_site_type_symbol
 _atom_site_label
 _atom_site_symmetry_multiplicity
 _atom_site_fract_x
 _atom_site_fract_y
 _atom_site_fract_z
 _atom_site_occupancy
  Li  Li0  1  0.25000000  0.25000000  0.25000000  1
  Ni  Ni1  1  0.75000000  0.75000000  0.75000000  1
  Cr  Cr2  1  0.00000000  0.00000000  0.00000000  1
  Rb  Rb3  1  0.50000000  0.50000000  0.50000000  1
  Cl  Cl4  1  0.75000000  0.75000000  0.25000000  1
  Cl  Cl5  1  0.25000000  0.25000000  0.75000000  1
  Cl  Cl6  1  0.75000000  0.25000000  0.75000000  1
  Cl  Cl7  1  0.25000000  0.75000000  0.25000000  1
  Cl  Cl8  1  0.25000000  0.75000000  0.75000000  1
  Cl  Cl9  1  0.75000000  0.25000000  0.25000000  1
