# generated using pymatgen
data_RbLiCuMoCl6
_symmetry_space_group_name_H-M   'P 1'
_cell_length_a   6.99416339
_cell_length_b   6.99416312
_cell_length_c   6.99416300
_cell_angle_alpha   59.99999585
_cell_angle_beta   59.99999712
_cell_angle_gamma   59.99999681
_symmetry_Int_Tables_number   1
_chemical_formula_structural   RbLiCuMoCl6
_chemical_formula_sum   'Rb1 Li1 Cu1 Mo1 Cl6'
_cell_volume   241.93140562
_cell_formula_units_Z   1
loop_
 _symmetry_equiv_pos_site_id
 _symmetry_equiv_pos_as_xyz
  1  'x, y, z'
loop_
 _atom_site_type_symbol
 _atom_site_label
 _atom_site_symmetry_multiplicity
 _atom_site_fract_x
 _atom_site_fract_y
 _atom_site_fract_z
 _atom_site_occupancy
  Li  Li0  1  0.25000000  0.25000000  0.25000000  1
  Rb  Rb1  1  0.75000000  0.75000000  0.75000000  1
  Cu  Cu2  1  0.00000000  0.00000000  0.00000000  1
  Mo  Mo3  1  0.50000000  0.50000000  0.50000000  1
  Cl  Cl4  1  0.75000000  0.75000000  0.25000000  1
  Cl  Cl5  1  0.25000000  0.25000000  0.75000000  1
  Cl  Cl6  1  0.75000000  0.25000000  0.75000000  1
  Cl  Cl7  1  0.25000000  0.75000000  0.25000000  1
  Cl  Cl8  1  0.25000000  0.75000000  0.75000000  1
  Cl  Cl9  1  0.75000000  0.25000000  0.25000000  1
