# generated using pymatgen
data_CsLiAgSbCl6
_symmetry_space_group_name_H-M   'P 1'
_cell_length_a   9.08566638
_cell_length_b   9.08566667
_cell_length_c   9.08566700
_cell_angle_alpha   60.00000246
_cell_angle_beta   60.00000137
_cell_angle_gamma   60.00000200
_symmetry_Int_Tables_number   1
_chemical_formula_structural   CsLiAgSbCl6
_chemical_formula_sum   'Cs1 Li1 Ag1 Sb1 Cl6'
_cell_volume   530.34126729
_cell_formula_units_Z   1
loop_
 _symmetry_equiv_pos_site_id
 _symmetry_equiv_pos_as_xyz
  1  'x, y, z'
loop_
 _atom_site_type_symbol
 _atom_site_label
 _atom_site_symmetry_multiplicity
 _atom_site_fract_x
 _atom_site_fract_y
 _atom_site_fract_z
 _atom_site_occupancy
  Li  Li0  1  0.25000000  0.25000000  0.25000000  1
  Sb  Sb1  1  0.75000000  0.75000000  0.75000000  1
  Ag  Ag2  1  0.00000000  0.00000000  0.00000000  1
  Cs  Cs3  1  0.50000000  0.50000000  0.50000000  1
  Cl  Cl4  1  0.75000000  0.75000000  0.25000000  1
  Cl  Cl5  1  0.25000000  0.25000000  0.75000000  1
  Cl  Cl6  1  0.75000000  0.25000000  0.75000000  1
  Cl  Cl7  1  0.25000000  0.75000000  0.25000000  1
  Cl  Cl8  1  0.25000000  0.75000000  0.75000000  1
  Cl  Cl9  1  0.75000000  0.25000000  0.25000000  1
