# generated using pymatgen
data_CsBaLiZnBr6
_symmetry_space_group_name_H-M   'P 1'
_cell_length_a   9.48906445
_cell_length_b   9.48906461
_cell_length_c   9.48906500
_cell_angle_alpha   60.00000213
_cell_angle_beta   60.00000156
_cell_angle_gamma   60.00000161
_symmetry_Int_Tables_number   1
_chemical_formula_structural   CsBaLiZnBr6
_chemical_formula_sum   'Cs1 Ba1 Li1 Zn1 Br6'
_cell_volume   604.16455311
_cell_formula_units_Z   1
loop_
 _symmetry_equiv_pos_site_id
 _symmetry_equiv_pos_as_xyz
  1  'x, y, z'
loop_
 _atom_site_type_symbol
 _atom_site_label
 _atom_site_symmetry_multiplicity
 _atom_site_fract_x
 _atom_site_fract_y
 _atom_site_fract_z
 _atom_site_occupancy
  Li  Li0  1  0.25000000  0.25000000  0.25000000  1
  Zn  Zn1  1  0.75000000  0.75000000  0.75000000  1
  Cs  Cs2  1  0.00000000  0.00000000  0.00000000  1
  Ba  Ba3  1  0.50000000  0.50000000  0.50000000  1
  Br  Br4  1  0.75000000  0.75000000  0.25000000  1
  Br  Br5  1  0.25000000  0.25000000  0.75000000  1
  Br  Br6  1  0.75000000  0.25000000  0.75000000  1
  Br  Br7  1  0.25000000  0.75000000  0.25000000  1
  Br  Br8  1  0.25000000  0.75000000  0.75000000  1
  Br  Br9  1  0.75000000  0.25000000  0.25000000  1
