# generated using pymatgen
data_NaMgCrAuCl6
_symmetry_space_group_name_H-M   'P 1'
_cell_length_a   7.24962439
_cell_length_b   7.24962459
_cell_length_c   7.24962400
_cell_angle_alpha   60.00000270
_cell_angle_beta   60.00000177
_cell_angle_gamma   60.00000475
_symmetry_Int_Tables_number   1
_chemical_formula_structural   NaMgCrAuCl6
_chemical_formula_sum   'Na1 Mg1 Cr1 Au1 Cl6'
_cell_volume   269.42105904
_cell_formula_units_Z   1
loop_
 _symmetry_equiv_pos_site_id
 _symmetry_equiv_pos_as_xyz
  1  'x, y, z'
loop_
 _atom_site_type_symbol
 _atom_site_label
 _atom_site_symmetry_multiplicity
 _atom_site_fract_x
 _atom_site_fract_y
 _atom_site_fract_z
 _atom_site_occupancy
  Mg  Mg0  1  0.25000000  0.25000000  0.25000000  1
  Cr  Cr1  1  0.75000000  0.75000000  0.75000000  1
  Na  Na2  1  0.00000000  0.00000000  0.00000000  1
  Au  Au3  1  0.50000000  0.50000000  0.50000000  1
  Cl  Cl4  1  0.75000000  0.75000000  0.25000000  1
  Cl  Cl5  1  0.25000000  0.25000000  0.75000000  1
  Cl  Cl6  1  0.75000000  0.25000000  0.75000000  1
  Cl  Cl7  1  0.25000000  0.75000000  0.25000000  1
  Cl  Cl8  1  0.25000000  0.75000000  0.75000000  1
  Cl  Cl9  1  0.75000000  0.25000000  0.25000000  1
