# generated using pymatgen
data_CsNaSrMgBr6
_symmetry_space_group_name_H-M   'P 1'
_cell_length_a   9.52228413
_cell_length_b   9.52228384
_cell_length_c   9.52228400
_cell_angle_alpha   59.99999945
_cell_angle_beta   60.00000046
_cell_angle_gamma   59.99999729
_symmetry_Int_Tables_number   1
_chemical_formula_structural   CsNaSrMgBr6
_chemical_formula_sum   'Cs1 Na1 Sr1 Mg1 Br6'
_cell_volume   610.53193032
_cell_formula_units_Z   1
loop_
 _symmetry_equiv_pos_site_id
 _symmetry_equiv_pos_as_xyz
  1  'x, y, z'
loop_
 _atom_site_type_symbol
 _atom_site_label
 _atom_site_symmetry_multiplicity
 _atom_site_fract_x
 _atom_site_fract_y
 _atom_site_fract_z
 _atom_site_occupancy
  Mg  Mg0  1  0.25000000  0.25000000  0.25000000  1
  Sr  Sr1  1  0.75000000  0.75000000  0.75000000  1
  Na  Na2  1  0.00000000  0.00000000  0.00000000  1
  Cs  Cs3  1  0.50000000  0.50000000  0.50000000  1
  Br  Br4  1  0.75000000  0.75000000  0.25000000  1
  Br  Br5  1  0.25000000  0.25000000  0.75000000  1
  Br  Br6  1  0.75000000  0.25000000  0.75000000  1
  Br  Br7  1  0.25000000  0.75000000  0.25000000  1
  Br  Br8  1  0.25000000  0.75000000  0.75000000  1
  Br  Br9  1  0.75000000  0.25000000  0.25000000  1
