# generated using pymatgen
data_RbMnAgPbCl6
_symmetry_space_group_name_H-M   'P 1'
_cell_length_a   8.63341500
_cell_length_b   8.63341482
_cell_length_c   8.63341500
_cell_angle_alpha   60.00000315
_cell_angle_beta   60.00000383
_cell_angle_gamma   60.00000408
_symmetry_Int_Tables_number   1
_chemical_formula_structural   RbMnAgPbCl6
_chemical_formula_sum   'Rb1 Mn1 Ag1 Pb1 Cl6'
_cell_volume   455.02251029
_cell_formula_units_Z   1
loop_
 _symmetry_equiv_pos_site_id
 _symmetry_equiv_pos_as_xyz
  1  'x, y, z'
loop_
 _atom_site_type_symbol
 _atom_site_label
 _atom_site_symmetry_multiplicity
 _atom_site_fract_x
 _atom_site_fract_y
 _atom_site_fract_z
 _atom_site_occupancy
  Mn  Mn0  1  0.25000000  0.25000000  0.25000000  1
  Pb  Pb1  1  0.75000000  0.75000000  0.75000000  1
  Rb  Rb2  1  0.00000000  0.00000000  0.00000000  1
  Ag  Ag3  1  0.50000000  0.50000000  0.50000000  1
  Cl  Cl4  1  0.75000000  0.75000000  0.25000000  1
  Cl  Cl5  1  0.25000000  0.25000000  0.75000000  1
  Cl  Cl6  1  0.75000000  0.25000000  0.75000000  1
  Cl  Cl7  1  0.25000000  0.75000000  0.25000000  1
  Cl  Cl8  1  0.25000000  0.75000000  0.75000000  1
  Cl  Cl9  1  0.75000000  0.25000000  0.25000000  1
