# generated using pymatgen
data_NaFeSnAuI6
_symmetry_space_group_name_H-M   'P 1'
_cell_length_a   8.55524654
_cell_length_b   8.55524597
_cell_length_c   8.55524600
_cell_angle_alpha   59.99999989
_cell_angle_beta   60.00000210
_cell_angle_gamma   59.99999919
_symmetry_Int_Tables_number   1
_chemical_formula_structural   NaFeSnAuI6
_chemical_formula_sum   'Na1 Fe1 Sn1 Au1 I6'
_cell_volume   442.77443540
_cell_formula_units_Z   1
loop_
 _symmetry_equiv_pos_site_id
 _symmetry_equiv_pos_as_xyz
  1  'x, y, z'
loop_
 _atom_site_type_symbol
 _atom_site_label
 _atom_site_symmetry_multiplicity
 _atom_site_fract_x
 _atom_site_fract_y
 _atom_site_fract_z
 _atom_site_occupancy
  Na  Na0  1  0.25000000  0.25000000  0.25000000  1
  Au  Au1  1  0.75000000  0.75000000  0.75000000  1
  Fe  Fe2  1  0.00000000  0.00000000  0.00000000  1
  Sn  Sn3  1  0.50000000  0.50000000  0.50000000  1
  I  I4  1  0.75000000  0.75000000  0.25000000  1
  I  I5  1  0.25000000  0.25000000  0.75000000  1
  I  I6  1  0.75000000  0.25000000  0.75000000  1
  I  I7  1  0.25000000  0.75000000  0.25000000  1
  I  I8  1  0.25000000  0.75000000  0.75000000  1
  I  I9  1  0.75000000  0.25000000  0.25000000  1
