# generated using pymatgen
data_NaLaCuAuCl6
_symmetry_space_group_name_H-M   'P 1'
_cell_length_a   7.76185112
_cell_length_b   7.76185130
_cell_length_c   7.76185100
_cell_angle_alpha   59.99999702
_cell_angle_beta   59.99999626
_cell_angle_gamma   60.00000072
_symmetry_Int_Tables_number   1
_chemical_formula_structural   NaLaCuAuCl6
_chemical_formula_sum   'Na1 La1 Cu1 Au1 Cl6'
_cell_volume   330.65942859
_cell_formula_units_Z   1
loop_
 _symmetry_equiv_pos_site_id
 _symmetry_equiv_pos_as_xyz
  1  'x, y, z'
loop_
 _atom_site_type_symbol
 _atom_site_label
 _atom_site_symmetry_multiplicity
 _atom_site_fract_x
 _atom_site_fract_y
 _atom_site_fract_z
 _atom_site_occupancy
  Na  Na0  1  0.25000000  0.25000000  0.25000000  1
  Au  Au1  1  0.75000000  0.75000000  0.75000000  1
  Cu  Cu2  1  0.00000000  0.00000000  0.00000000  1
  La  La3  1  0.50000000  0.50000000  0.50000000  1
  Cl  Cl4  1  0.75000000  0.75000000  0.25000000  1
  Cl  Cl5  1  0.25000000  0.25000000  0.75000000  1
  Cl  Cl6  1  0.75000000  0.25000000  0.75000000  1
  Cl  Cl7  1  0.25000000  0.75000000  0.25000000  1
  Cl  Cl8  1  0.25000000  0.75000000  0.75000000  1
  Cl  Cl9  1  0.75000000  0.25000000  0.25000000  1
