# generated using pymatgen
data_NaCrNiHgCl6
_symmetry_space_group_name_H-M   'P 1'
_cell_length_a   7.45039582
_cell_length_b   7.45039609
_cell_length_c   7.45039600
_cell_angle_alpha   60.00000042
_cell_angle_beta   59.99999921
_cell_angle_gamma   60.00000068
_symmetry_Int_Tables_number   1
_chemical_formula_structural   NaCrNiHgCl6
_chemical_formula_sum   'Na1 Cr1 Ni1 Hg1 Cl6'
_cell_volume   292.43077062
_cell_formula_units_Z   1
loop_
 _symmetry_equiv_pos_site_id
 _symmetry_equiv_pos_as_xyz
  1  'x, y, z'
loop_
 _atom_site_type_symbol
 _atom_site_label
 _atom_site_symmetry_multiplicity
 _atom_site_fract_x
 _atom_site_fract_y
 _atom_site_fract_z
 _atom_site_occupancy
  Na  Na0  1  0.25000000  0.25000000  0.25000000  1
  Cr  Cr1  1  0.75000000  0.75000000  0.75000000  1
  Ni  Ni2  1  0.00000000  0.00000000  0.00000000  1
  Hg  Hg3  1  0.50000000  0.50000000  0.50000000  1
  Cl  Cl4  1  0.75000000  0.75000000  0.25000000  1
  Cl  Cl5  1  0.25000000  0.25000000  0.75000000  1
  Cl  Cl6  1  0.75000000  0.25000000  0.75000000  1
  Cl  Cl7  1  0.25000000  0.75000000  0.25000000  1
  Cl  Cl8  1  0.25000000  0.75000000  0.75000000  1
  Cl  Cl9  1  0.75000000  0.25000000  0.25000000  1
