# generated using pymatgen
data_CsNaCuMoCl6
_symmetry_space_group_name_H-M   'P 1'
_cell_length_a   7.08920558
_cell_length_b   7.08920548
_cell_length_c   7.08920500
_cell_angle_alpha   59.99999758
_cell_angle_beta   59.99999803
_cell_angle_gamma   60.00000093
_symmetry_Int_Tables_number   1
_chemical_formula_structural   CsNaCuMoCl6
_chemical_formula_sum   'Cs1 Na1 Cu1 Mo1 Cl6'
_cell_volume   251.92870887
_cell_formula_units_Z   1
loop_
 _symmetry_equiv_pos_site_id
 _symmetry_equiv_pos_as_xyz
  1  'x, y, z'
loop_
 _atom_site_type_symbol
 _atom_site_label
 _atom_site_symmetry_multiplicity
 _atom_site_fract_x
 _atom_site_fract_y
 _atom_site_fract_z
 _atom_site_occupancy
  Na  Na0  1  0.25000000  0.25000000  0.25000000  1
  Cs  Cs1  1  0.75000000  0.75000000  0.75000000  1
  Cu  Cu2  1  0.00000000  0.00000000  0.00000000  1
  Mo  Mo3  1  0.50000000  0.50000000  0.50000000  1
  Cl  Cl4  1  0.75000000  0.75000000  0.25000000  1
  Cl  Cl5  1  0.25000000  0.25000000  0.75000000  1
  Cl  Cl6  1  0.75000000  0.25000000  0.75000000  1
  Cl  Cl7  1  0.25000000  0.75000000  0.25000000  1
  Cl  Cl8  1  0.25000000  0.75000000  0.75000000  1
  Cl  Cl9  1  0.75000000  0.25000000  0.25000000  1
