# generated using pymatgen
data_NaLiSmCuI6
_symmetry_space_group_name_H-M   'P 1'
_cell_length_a   8.60385165
_cell_length_b   8.60385217
_cell_length_c   8.60385200
_cell_angle_alpha   60.00000066
_cell_angle_beta   59.99999866
_cell_angle_gamma   60.00000111
_symmetry_Int_Tables_number   1
_chemical_formula_structural   NaLiSmCuI6
_chemical_formula_sum   'Na1 Li1 Sm1 Cu1 I6'
_cell_volume   450.36412511
_cell_formula_units_Z   1
loop_
 _symmetry_equiv_pos_site_id
 _symmetry_equiv_pos_as_xyz
  1  'x, y, z'
loop_
 _atom_site_type_symbol
 _atom_site_label
 _atom_site_symmetry_multiplicity
 _atom_site_fract_x
 _atom_site_fract_y
 _atom_site_fract_z
 _atom_site_occupancy
  Na  Na0  1  0.25000000  0.25000000  0.25000000  1
  Cu  Cu1  1  0.75000000  0.75000000  0.75000000  1
  Li  Li2  1  0.00000000  0.00000000  0.00000000  1
  Sm  Sm3  1  0.50000000  0.50000000  0.50000000  1
  I  I4  1  0.75000000  0.75000000  0.25000000  1
  I  I5  1  0.25000000  0.25000000  0.75000000  1
  I  I6  1  0.75000000  0.25000000  0.75000000  1
  I  I7  1  0.25000000  0.75000000  0.25000000  1
  I  I8  1  0.25000000  0.75000000  0.75000000  1
  I  I9  1  0.75000000  0.25000000  0.25000000  1
