# generated using pymatgen
data_NaSrCuNiBr6
_symmetry_space_group_name_H-M   'P 1'
_cell_length_a   8.34904829
_cell_length_b   8.34904883
_cell_length_c   8.34904900
_cell_angle_alpha   60.00000327
_cell_angle_beta   60.00000115
_cell_angle_gamma   60.00000060
_symmetry_Int_Tables_number   1
_chemical_formula_structural   NaSrCuNiBr6
_chemical_formula_sum   'Na1 Sr1 Cu1 Ni1 Br6'
_cell_volume   411.52479037
_cell_formula_units_Z   1
loop_
 _symmetry_equiv_pos_site_id
 _symmetry_equiv_pos_as_xyz
  1  'x, y, z'
loop_
 _atom_site_type_symbol
 _atom_site_label
 _atom_site_symmetry_multiplicity
 _atom_site_fract_x
 _atom_site_fract_y
 _atom_site_fract_z
 _atom_site_occupancy
  Na  Na0  1  0.25000000  0.25000000  0.25000000  1
  Cu  Cu1  1  0.75000000  0.75000000  0.75000000  1
  Ni  Ni2  1  0.00000000  0.00000000  0.00000000  1
  Sr  Sr3  1  0.50000000  0.50000000  0.50000000  1
  Br  Br4  1  0.75000000  0.75000000  0.25000000  1
  Br  Br5  1  0.25000000  0.25000000  0.75000000  1
  Br  Br6  1  0.75000000  0.25000000  0.75000000  1
  Br  Br7  1  0.25000000  0.75000000  0.25000000  1
  Br  Br8  1  0.25000000  0.75000000  0.75000000  1
  Br  Br9  1  0.75000000  0.25000000  0.25000000  1
