# generated using pymatgen
data_NaLiAlCuF6
_symmetry_space_group_name_H-M   'P 1'
_cell_length_a   5.22044526
_cell_length_b   5.22044576
_cell_length_c   5.22044500
_cell_angle_alpha   59.99999848
_cell_angle_beta   59.99999531
_cell_angle_gamma   59.99999639
_symmetry_Int_Tables_number   1
_chemical_formula_structural   NaLiAlCuF6
_chemical_formula_sum   'Na1 Li1 Al1 Cu1 F6'
_cell_volume   100.60223488
_cell_formula_units_Z   1
loop_
 _symmetry_equiv_pos_site_id
 _symmetry_equiv_pos_as_xyz
  1  'x, y, z'
loop_
 _atom_site_type_symbol
 _atom_site_label
 _atom_site_symmetry_multiplicity
 _atom_site_fract_x
 _atom_site_fract_y
 _atom_site_fract_z
 _atom_site_occupancy
  Na  Na0  1  0.25000000  0.25000000  0.25000000  1
  Cu  Cu1  1  0.75000000  0.75000000  0.75000000  1
  Li  Li2  1  0.00000000  0.00000000  0.00000000  1
  Al  Al3  1  0.50000000  0.50000000  0.50000000  1
  F  F4  1  0.75000000  0.75000000  0.25000000  1
  F  F5  1  0.25000000  0.25000000  0.75000000  1
  F  F6  1  0.75000000  0.25000000  0.75000000  1
  F  F7  1  0.25000000  0.75000000  0.25000000  1
  F  F8  1  0.25000000  0.75000000  0.75000000  1
  F  F9  1  0.75000000  0.25000000  0.25000000  1
