# generated using pymatgen
data_NaCoCuAuCl6
_symmetry_space_group_name_H-M   'P 1'
_cell_length_a   6.87465982
_cell_length_b   6.87465957
_cell_length_c   6.87465900
_cell_angle_alpha   59.99999793
_cell_angle_beta   59.99999916
_cell_angle_gamma   60.00000099
_symmetry_Int_Tables_number   1
_chemical_formula_structural   NaCoCuAuCl6
_chemical_formula_sum   'Na1 Co1 Cu1 Au1 Cl6'
_cell_volume   229.74103160
_cell_formula_units_Z   1
loop_
 _symmetry_equiv_pos_site_id
 _symmetry_equiv_pos_as_xyz
  1  'x, y, z'
loop_
 _atom_site_type_symbol
 _atom_site_label
 _atom_site_symmetry_multiplicity
 _atom_site_fract_x
 _atom_site_fract_y
 _atom_site_fract_z
 _atom_site_occupancy
  Na  Na0  1  0.25000000  0.25000000  0.25000000  1
  Cu  Cu1  1  0.75000000  0.75000000  0.75000000  1
  Co  Co2  1  0.00000000  0.00000000  0.00000000  1
  Au  Au3  1  0.50000000  0.50000000  0.50000000  1
  Cl  Cl4  1  0.75000000  0.75000000  0.25000000  1
  Cl  Cl5  1  0.25000000  0.25000000  0.75000000  1
  Cl  Cl6  1  0.75000000  0.25000000  0.75000000  1
  Cl  Cl7  1  0.25000000  0.75000000  0.25000000  1
  Cl  Cl8  1  0.25000000  0.75000000  0.75000000  1
  Cl  Cl9  1  0.75000000  0.25000000  0.25000000  1
