# generated using pymatgen
data_NaGdTlCuBr6
_symmetry_space_group_name_H-M   'P 1'
_cell_length_a   8.70575253
_cell_length_b   8.70575217
_cell_length_c   8.70575300
_cell_angle_alpha   60.00000066
_cell_angle_beta   60.00000200
_cell_angle_gamma   60.00000218
_symmetry_Int_Tables_number   1
_chemical_formula_structural   NaGdTlCuBr6
_chemical_formula_sum   'Na1 Gd1 Tl1 Cu1 Br6'
_cell_volume   466.55621252
_cell_formula_units_Z   1
loop_
 _symmetry_equiv_pos_site_id
 _symmetry_equiv_pos_as_xyz
  1  'x, y, z'
loop_
 _atom_site_type_symbol
 _atom_site_label
 _atom_site_symmetry_multiplicity
 _atom_site_fract_x
 _atom_site_fract_y
 _atom_site_fract_z
 _atom_site_occupancy
  Na  Na0  1  0.25000000  0.25000000  0.25000000  1
  Gd  Gd1  1  0.75000000  0.75000000  0.75000000  1
  Cu  Cu2  1  0.00000000  0.00000000  0.00000000  1
  Tl  Tl3  1  0.50000000  0.50000000  0.50000000  1
  Br  Br4  1  0.75000000  0.75000000  0.25000000  1
  Br  Br5  1  0.25000000  0.25000000  0.75000000  1
  Br  Br6  1  0.75000000  0.25000000  0.75000000  1
  Br  Br7  1  0.25000000  0.75000000  0.25000000  1
  Br  Br8  1  0.25000000  0.75000000  0.75000000  1
  Br  Br9  1  0.75000000  0.25000000  0.25000000  1
