# generated using pymatgen
data_NaTlFeHgI6
_symmetry_space_group_name_H-M   'P 1'
_cell_length_a   9.00544016
_cell_length_b   9.00544096
_cell_length_c   9.00544100
_cell_angle_alpha   60.00000351
_cell_angle_beta   60.00000060
_cell_angle_gamma   60.00000119
_symmetry_Int_Tables_number   1
_chemical_formula_structural   NaTlFeHgI6
_chemical_formula_sum   'Na1 Tl1 Fe1 Hg1 I6'
_cell_volume   516.41628933
_cell_formula_units_Z   1
loop_
 _symmetry_equiv_pos_site_id
 _symmetry_equiv_pos_as_xyz
  1  'x, y, z'
loop_
 _atom_site_type_symbol
 _atom_site_label
 _atom_site_symmetry_multiplicity
 _atom_site_fract_x
 _atom_site_fract_y
 _atom_site_fract_z
 _atom_site_occupancy
  Na  Na0  1  0.25000000  0.25000000  0.25000000  1
  Hg  Hg1  1  0.75000000  0.75000000  0.75000000  1
  Fe  Fe2  1  0.00000000  0.00000000  0.00000000  1
  Tl  Tl3  1  0.50000000  0.50000000  0.50000000  1
  I  I4  1  0.75000000  0.75000000  0.25000000  1
  I  I5  1  0.25000000  0.25000000  0.75000000  1
  I  I6  1  0.75000000  0.25000000  0.75000000  1
  I  I7  1  0.25000000  0.75000000  0.25000000  1
  I  I8  1  0.25000000  0.75000000  0.75000000  1
  I  I9  1  0.75000000  0.25000000  0.25000000  1
