# generated using pymatgen
data_CsNaInHgF6
_symmetry_space_group_name_H-M   'P 1'
_cell_length_a   7.59666486
_cell_length_b   7.59666467
_cell_length_c   7.59666500
_cell_angle_alpha   60.00000290
_cell_angle_beta   60.00000374
_cell_angle_gamma   60.00000417
_symmetry_Int_Tables_number   1
_chemical_formula_structural   CsNaInHgF6
_chemical_formula_sum   'Cs1 Na1 In1 Hg1 F6'
_cell_volume   309.99446256
_cell_formula_units_Z   1
loop_
 _symmetry_equiv_pos_site_id
 _symmetry_equiv_pos_as_xyz
  1  'x, y, z'
loop_
 _atom_site_type_symbol
 _atom_site_label
 _atom_site_symmetry_multiplicity
 _atom_site_fract_x
 _atom_site_fract_y
 _atom_site_fract_z
 _atom_site_occupancy
  Na  Na0  1  0.25000000  0.25000000  0.25000000  1
  Hg  Hg1  1  0.75000000  0.75000000  0.75000000  1
  In  In2  1  0.00000000  0.00000000  0.00000000  1
  Cs  Cs3  1  0.50000000  0.50000000  0.50000000  1
  F  F4  1  0.75000000  0.75000000  0.25000000  1
  F  F5  1  0.25000000  0.25000000  0.75000000  1
  F  F6  1  0.75000000  0.25000000  0.75000000  1
  F  F7  1  0.25000000  0.75000000  0.25000000  1
  F  F8  1  0.25000000  0.75000000  0.75000000  1
  F  F9  1  0.75000000  0.25000000  0.25000000  1
