# generated using pymatgen
data_CsNaHgPdCl6
_symmetry_space_group_name_H-M   'P 1'
_cell_length_a   9.04235016
_cell_length_b   9.04235023
_cell_length_c   9.04235000
_cell_angle_alpha   60.00000084
_cell_angle_beta   60.00000060
_cell_angle_gamma   59.99999853
_symmetry_Int_Tables_number   1
_chemical_formula_structural   CsNaHgPdCl6
_chemical_formula_sum   'Cs1 Na1 Hg1 Pd1 Cl6'
_cell_volume   522.79203286
_cell_formula_units_Z   1
loop_
 _symmetry_equiv_pos_site_id
 _symmetry_equiv_pos_as_xyz
  1  'x, y, z'
loop_
 _atom_site_type_symbol
 _atom_site_label
 _atom_site_symmetry_multiplicity
 _atom_site_fract_x
 _atom_site_fract_y
 _atom_site_fract_z
 _atom_site_occupancy
  Na  Na0  1  0.25000000  0.25000000  0.25000000  1
  Hg  Hg1  1  0.75000000  0.75000000  0.75000000  1
  Pd  Pd2  1  0.00000000  0.00000000  0.00000000  1
  Cs  Cs3  1  0.50000000  0.50000000  0.50000000  1
  Cl  Cl4  1  0.75000000  0.75000000  0.25000000  1
  Cl  Cl5  1  0.25000000  0.25000000  0.75000000  1
  Cl  Cl6  1  0.75000000  0.25000000  0.75000000  1
  Cl  Cl7  1  0.25000000  0.75000000  0.25000000  1
  Cl  Cl8  1  0.25000000  0.75000000  0.75000000  1
  Cl  Cl9  1  0.75000000  0.25000000  0.25000000  1
