# generated using pymatgen
data_NaLiLuAgBr6
_symmetry_space_group_name_H-M   'P 1'
_cell_length_a   7.28596321
_cell_length_b   7.28596325
_cell_length_c   7.28596300
_cell_angle_alpha   59.99999659
_cell_angle_beta   59.99999640
_cell_angle_gamma   60.00000041
_symmetry_Int_Tables_number   1
_chemical_formula_structural   NaLiLuAgBr6
_chemical_formula_sum   'Na1 Li1 Lu1 Ag1 Br6'
_cell_volume   273.49279654
_cell_formula_units_Z   1
loop_
 _symmetry_equiv_pos_site_id
 _symmetry_equiv_pos_as_xyz
  1  'x, y, z'
loop_
 _atom_site_type_symbol
 _atom_site_label
 _atom_site_symmetry_multiplicity
 _atom_site_fract_x
 _atom_site_fract_y
 _atom_site_fract_z
 _atom_site_occupancy
  Na  Na0  1  0.25000000  0.25000000  0.25000000  1
  Lu  Lu1  1  0.75000000  0.75000000  0.75000000  1
  Li  Li2  1  0.00000000  0.00000000  0.00000000  1
  Ag  Ag3  1  0.50000000  0.50000000  0.50000000  1
  Br  Br4  1  0.75000000  0.75000000  0.25000000  1
  Br  Br5  1  0.25000000  0.25000000  0.75000000  1
  Br  Br6  1  0.75000000  0.25000000  0.75000000  1
  Br  Br7  1  0.25000000  0.75000000  0.25000000  1
  Br  Br8  1  0.25000000  0.75000000  0.75000000  1
  Br  Br9  1  0.75000000  0.25000000  0.25000000  1
