# generated using pymatgen
data_NaLiMgPdI6
_symmetry_space_group_name_H-M   'P 1'
_cell_length_a   7.62540573
_cell_length_b   7.62540521
_cell_length_c   7.62540500
_cell_angle_alpha   59.99999659
_cell_angle_beta   59.99999883
_cell_angle_gamma   59.99999697
_symmetry_Int_Tables_number   1
_chemical_formula_structural   NaLiMgPdI6
_chemical_formula_sum   'Na1 Li1 Mg1 Pd1 I6'
_cell_volume   313.52615437
_cell_formula_units_Z   1
loop_
 _symmetry_equiv_pos_site_id
 _symmetry_equiv_pos_as_xyz
  1  'x, y, z'
loop_
 _atom_site_type_symbol
 _atom_site_label
 _atom_site_symmetry_multiplicity
 _atom_site_fract_x
 _atom_site_fract_y
 _atom_site_fract_z
 _atom_site_occupancy
  Na  Na0  1  0.25000000  0.25000000  0.25000000  1
  Mg  Mg1  1  0.75000000  0.75000000  0.75000000  1
  Li  Li2  1  0.00000000  0.00000000  0.00000000  1
  Pd  Pd3  1  0.50000000  0.50000000  0.50000000  1
  I  I4  1  0.75000000  0.75000000  0.25000000  1
  I  I5  1  0.25000000  0.25000000  0.75000000  1
  I  I6  1  0.75000000  0.25000000  0.75000000  1
  I  I7  1  0.25000000  0.75000000  0.25000000  1
  I  I8  1  0.25000000  0.75000000  0.75000000  1
  I  I9  1  0.75000000  0.25000000  0.25000000  1
