# generated using pymatgen
data_RbNaAgMoBr6
_symmetry_space_group_name_H-M   'P 1'
_cell_length_a   9.03062194
_cell_length_b   9.03062200
_cell_length_c   9.03062200
_cell_angle_alpha   60.00000002
_cell_angle_beta   59.99999980
_cell_angle_gamma   60.00000009
_symmetry_Int_Tables_number   1
_chemical_formula_structural   RbNaAgMoBr6
_chemical_formula_sum   'Rb1 Na1 Ag1 Mo1 Br6'
_cell_volume   520.76044786
_cell_formula_units_Z   1
loop_
 _symmetry_equiv_pos_site_id
 _symmetry_equiv_pos_as_xyz
  1  'x, y, z'
loop_
 _atom_site_type_symbol
 _atom_site_label
 _atom_site_symmetry_multiplicity
 _atom_site_fract_x
 _atom_site_fract_y
 _atom_site_fract_z
 _atom_site_occupancy
  Na  Na0  1  0.25000000  0.25000000  0.25000000  1
  Mo  Mo1  1  0.75000000  0.75000000  0.75000000  1
  Rb  Rb2  1  0.00000000  0.00000000  0.00000000  1
  Ag  Ag3  1  0.50000000  0.50000000  0.50000000  1
  Br  Br4  1  0.75000000  0.75000000  0.25000000  1
  Br  Br5  1  0.25000000  0.25000000  0.75000000  1
  Br  Br6  1  0.75000000  0.25000000  0.75000000  1
  Br  Br7  1  0.25000000  0.75000000  0.25000000  1
  Br  Br8  1  0.25000000  0.75000000  0.75000000  1
  Br  Br9  1  0.75000000  0.25000000  0.25000000  1
