# generated using pymatgen
data_RbNaMnPbF6
_symmetry_space_group_name_H-M   'P 1'
_cell_length_a   6.51448208
_cell_length_b   6.51448260
_cell_length_c   6.51448300
_cell_angle_alpha   60.00000303
_cell_angle_beta   60.00000042
_cell_angle_gamma   60.00000289
_symmetry_Int_Tables_number   1
_chemical_formula_structural   RbNaMnPbF6
_chemical_formula_sum   'Rb1 Na1 Mn1 Pb1 F6'
_cell_volume   195.49011420
_cell_formula_units_Z   1
loop_
 _symmetry_equiv_pos_site_id
 _symmetry_equiv_pos_as_xyz
  1  'x, y, z'
loop_
 _atom_site_type_symbol
 _atom_site_label
 _atom_site_symmetry_multiplicity
 _atom_site_fract_x
 _atom_site_fract_y
 _atom_site_fract_z
 _atom_site_occupancy
  Na  Na0  1  0.25000000  0.25000000  0.25000000  1
  Rb  Rb1  1  0.75000000  0.75000000  0.75000000  1
  Mn  Mn2  1  0.00000000  0.00000000  0.00000000  1
  Pb  Pb3  1  0.50000000  0.50000000  0.50000000  1
  F  F4  1  0.75000000  0.75000000  0.25000000  1
  F  F5  1  0.25000000  0.25000000  0.75000000  1
  F  F6  1  0.75000000  0.25000000  0.75000000  1
  F  F7  1  0.25000000  0.75000000  0.25000000  1
  F  F8  1  0.25000000  0.75000000  0.75000000  1
  F  F9  1  0.75000000  0.25000000  0.25000000  1
