# generated using pymatgen
data_CsNaScCuF6
_symmetry_space_group_name_H-M   'P 1'
_cell_length_a   7.77022591
_cell_length_b   7.77022602
_cell_length_c   7.77022600
_cell_angle_alpha   60.00000009
_cell_angle_beta   59.99999960
_cell_angle_gamma   60.00000022
_symmetry_Int_Tables_number   1
_chemical_formula_structural   CsNaScCuF6
_chemical_formula_sum   'Cs1 Na1 Sc1 Cu1 F6'
_cell_volume   331.73091724
_cell_formula_units_Z   1
loop_
 _symmetry_equiv_pos_site_id
 _symmetry_equiv_pos_as_xyz
  1  'x, y, z'
loop_
 _atom_site_type_symbol
 _atom_site_label
 _atom_site_symmetry_multiplicity
 _atom_site_fract_x
 _atom_site_fract_y
 _atom_site_fract_z
 _atom_site_occupancy
  Na  Na0  1  0.25000000  0.25000000  0.25000000  1
  Sc  Sc1  1  0.75000000  0.75000000  0.75000000  1
  Cu  Cu2  1  0.00000000  0.00000000  0.00000000  1
  Cs  Cs3  1  0.50000000  0.50000000  0.50000000  1
  F  F4  1  0.75000000  0.75000000  0.25000000  1
  F  F5  1  0.25000000  0.25000000  0.75000000  1
  F  F6  1  0.75000000  0.25000000  0.75000000  1
  F  F7  1  0.25000000  0.75000000  0.25000000  1
  F  F8  1  0.25000000  0.75000000  0.75000000  1
  F  F9  1  0.75000000  0.25000000  0.25000000  1
