# generated using pymatgen
data_NaSrCaTlCl6
_symmetry_space_group_name_H-M   'P 1'
_cell_length_a   8.27212887
_cell_length_b   8.27212873
_cell_length_c   8.27212900
_cell_angle_alpha   60.00000291
_cell_angle_beta   60.00000349
_cell_angle_gamma   60.00000174
_symmetry_Int_Tables_number   1
_chemical_formula_structural   NaSrCaTlCl6
_chemical_formula_sum   'Na1 Sr1 Ca1 Tl1 Cl6'
_cell_volume   400.25512655
_cell_formula_units_Z   1
loop_
 _symmetry_equiv_pos_site_id
 _symmetry_equiv_pos_as_xyz
  1  'x, y, z'
loop_
 _atom_site_type_symbol
 _atom_site_label
 _atom_site_symmetry_multiplicity
 _atom_site_fract_x
 _atom_site_fract_y
 _atom_site_fract_z
 _atom_site_occupancy
  Na  Na0  1  0.25000000  0.25000000  0.25000000  1
  Sr  Sr1  1  0.75000000  0.75000000  0.75000000  1
  Ca  Ca2  1  0.00000000  0.00000000  0.00000000  1
  Tl  Tl3  1  0.50000000  0.50000000  0.50000000  1
  Cl  Cl4  1  0.75000000  0.75000000  0.25000000  1
  Cl  Cl5  1  0.25000000  0.25000000  0.75000000  1
  Cl  Cl6  1  0.75000000  0.25000000  0.75000000  1
  Cl  Cl7  1  0.25000000  0.75000000  0.25000000  1
  Cl  Cl8  1  0.25000000  0.75000000  0.75000000  1
  Cl  Cl9  1  0.75000000  0.25000000  0.25000000  1
