# generated using pymatgen
data_NaTlZnCuI6
_symmetry_space_group_name_H-M   'P 1'
_cell_length_a   7.54062628
_cell_length_b   7.54062647
_cell_length_c   7.54062600
_cell_angle_alpha   60.00000205
_cell_angle_beta   60.00000123
_cell_angle_gamma   60.00000418
_symmetry_Int_Tables_number   1
_chemical_formula_structural   NaTlZnCuI6
_chemical_formula_sum   'Na1 Tl1 Zn1 Cu1 I6'
_cell_volume   303.18469451
_cell_formula_units_Z   1
loop_
 _symmetry_equiv_pos_site_id
 _symmetry_equiv_pos_as_xyz
  1  'x, y, z'
loop_
 _atom_site_type_symbol
 _atom_site_label
 _atom_site_symmetry_multiplicity
 _atom_site_fract_x
 _atom_site_fract_y
 _atom_site_fract_z
 _atom_site_occupancy
  Na  Na0  1  0.25000000  0.25000000  0.25000000  1
  Tl  Tl1  1  0.75000000  0.75000000  0.75000000  1
  Cu  Cu2  1  0.00000000  0.00000000  0.00000000  1
  Zn  Zn3  1  0.50000000  0.50000000  0.50000000  1
  I  I4  1  0.75000000  0.75000000  0.25000000  1
  I  I5  1  0.25000000  0.25000000  0.75000000  1
  I  I6  1  0.75000000  0.25000000  0.75000000  1
  I  I7  1  0.25000000  0.75000000  0.25000000  1
  I  I8  1  0.25000000  0.75000000  0.75000000  1
  I  I9  1  0.75000000  0.25000000  0.25000000  1
