# generated using pymatgen
data_NaMgZnAuI6
_symmetry_space_group_name_H-M   'P 1'
_cell_length_a   7.96378961
_cell_length_b   7.96378971
_cell_length_c   7.96378900
_cell_angle_alpha   59.99999878
_cell_angle_beta   59.99999838
_cell_angle_gamma   59.99999932
_symmetry_Int_Tables_number   1
_chemical_formula_structural   NaMgZnAuI6
_chemical_formula_sum   'Na1 Mg1 Zn1 Au1 I6'
_cell_volume   357.14477198
_cell_formula_units_Z   1
loop_
 _symmetry_equiv_pos_site_id
 _symmetry_equiv_pos_as_xyz
  1  'x, y, z'
loop_
 _atom_site_type_symbol
 _atom_site_label
 _atom_site_symmetry_multiplicity
 _atom_site_fract_x
 _atom_site_fract_y
 _atom_site_fract_z
 _atom_site_occupancy
  Na  Na0  1  0.25000000  0.25000000  0.25000000  1
  Zn  Zn1  1  0.75000000  0.75000000  0.75000000  1
  Mg  Mg2  1  0.00000000  0.00000000  0.00000000  1
  Au  Au3  1  0.50000000  0.50000000  0.50000000  1
  I  I4  1  0.75000000  0.75000000  0.25000000  1
  I  I5  1  0.25000000  0.25000000  0.75000000  1
  I  I6  1  0.75000000  0.25000000  0.75000000  1
  I  I7  1  0.25000000  0.75000000  0.25000000  1
  I  I8  1  0.25000000  0.75000000  0.75000000  1
  I  I9  1  0.75000000  0.25000000  0.25000000  1
