# generated using pymatgen
data_NaNbCuHgF6
_symmetry_space_group_name_H-M   'P 1'
_cell_length_a   5.89255360
_cell_length_b   5.89255389
_cell_length_c   5.89255300
_cell_angle_alpha   59.99999940
_cell_angle_beta   59.99999778
_cell_angle_gamma   59.99999690
_symmetry_Int_Tables_number   1
_chemical_formula_structural   NaNbCuHgF6
_chemical_formula_sum   'Na1 Nb1 Cu1 Hg1 F6'
_cell_volume   144.67569771
_cell_formula_units_Z   1
loop_
 _symmetry_equiv_pos_site_id
 _symmetry_equiv_pos_as_xyz
  1  'x, y, z'
loop_
 _atom_site_type_symbol
 _atom_site_label
 _atom_site_symmetry_multiplicity
 _atom_site_fract_x
 _atom_site_fract_y
 _atom_site_fract_z
 _atom_site_occupancy
  Nb  Nb0  1  0.25000000  0.25000000  0.25000000  1
  Hg  Hg1  1  0.75000000  0.75000000  0.75000000  1
  Na  Na2  1  0.00000000  0.00000000  0.00000000  1
  Cu  Cu3  1  0.50000000  0.50000000  0.50000000  1
  F  F4  1  0.75000000  0.75000000  0.25000000  1
  F  F5  1  0.25000000  0.25000000  0.75000000  1
  F  F6  1  0.75000000  0.25000000  0.75000000  1
  F  F7  1  0.25000000  0.75000000  0.25000000  1
  F  F8  1  0.25000000  0.75000000  0.75000000  1
  F  F9  1  0.75000000  0.25000000  0.25000000  1
