# generated using pymatgen
data_LiNbCuHgCl6
_symmetry_space_group_name_H-M   'P 1'
_cell_length_a   6.56342630
_cell_length_b   6.56342694
_cell_length_c   6.56342700
_cell_angle_alpha   60.00000474
_cell_angle_beta   60.00000152
_cell_angle_gamma   60.00000424
_symmetry_Int_Tables_number   1
_chemical_formula_structural   LiNbCuHgCl6
_chemical_formula_sum   'Li1 Nb1 Cu1 Hg1 Cl6'
_cell_volume   199.92953890
_cell_formula_units_Z   1
loop_
 _symmetry_equiv_pos_site_id
 _symmetry_equiv_pos_as_xyz
  1  'x, y, z'
loop_
 _atom_site_type_symbol
 _atom_site_label
 _atom_site_symmetry_multiplicity
 _atom_site_fract_x
 _atom_site_fract_y
 _atom_site_fract_z
 _atom_site_occupancy
  Nb  Nb0  1  0.25000000  0.25000000  0.25000000  1
  Hg  Hg1  1  0.75000000  0.75000000  0.75000000  1
  Li  Li2  1  0.00000000  0.00000000  0.00000000  1
  Cu  Cu3  1  0.50000000  0.50000000  0.50000000  1
  Cl  Cl4  1  0.75000000  0.75000000  0.25000000  1
  Cl  Cl5  1  0.25000000  0.25000000  0.75000000  1
  Cl  Cl6  1  0.75000000  0.25000000  0.75000000  1
  Cl  Cl7  1  0.25000000  0.75000000  0.25000000  1
  Cl  Cl8  1  0.25000000  0.75000000  0.75000000  1
  Cl  Cl9  1  0.75000000  0.25000000  0.25000000  1
