# generated using pymatgen
data_LiMnNiAgCl6
_symmetry_space_group_name_H-M   'P 1'
_cell_length_a   6.91830399
_cell_length_b   6.91830426
_cell_length_c   6.91830400
_cell_angle_alpha   60.00000124
_cell_angle_beta   59.99999994
_cell_angle_gamma   60.00000403
_symmetry_Int_Tables_number   1
_chemical_formula_structural   LiMnNiAgCl6
_chemical_formula_sum   'Li1 Mn1 Ni1 Ag1 Cl6'
_cell_volume   234.14449937
_cell_formula_units_Z   1
loop_
 _symmetry_equiv_pos_site_id
 _symmetry_equiv_pos_as_xyz
  1  'x, y, z'
loop_
 _atom_site_type_symbol
 _atom_site_label
 _atom_site_symmetry_multiplicity
 _atom_site_fract_x
 _atom_site_fract_y
 _atom_site_fract_z
 _atom_site_occupancy
  Ni  Ni0  1  0.25000000  0.25000000  0.25000000  1
  Ag  Ag1  1  0.75000000  0.75000000  0.75000000  1
  Li  Li2  1  0.00000000  0.00000000  0.00000000  1
  Mn  Mn3  1  0.50000000  0.50000000  0.50000000  1
  Cl  Cl4  1  0.75000000  0.75000000  0.25000000  1
  Cl  Cl5  1  0.25000000  0.25000000  0.75000000  1
  Cl  Cl6  1  0.75000000  0.25000000  0.75000000  1
  Cl  Cl7  1  0.25000000  0.75000000  0.25000000  1
  Cl  Cl8  1  0.25000000  0.75000000  0.75000000  1
  Cl  Cl9  1  0.75000000  0.25000000  0.25000000  1
