# generated using pymatgen
data_NaZnNiAuCl6
_symmetry_space_group_name_H-M   'P 1'
_cell_length_a   7.11698988
_cell_length_b   7.11698917
_cell_length_c   7.11698900
_cell_angle_alpha   59.99999614
_cell_angle_beta   59.99999944
_cell_angle_gamma   59.99999632
_symmetry_Int_Tables_number   1
_chemical_formula_structural   NaZnNiAuCl6
_chemical_formula_sum   'Na1 Zn1 Ni1 Au1 Cl6'
_cell_volume   254.90239931
_cell_formula_units_Z   1
loop_
 _symmetry_equiv_pos_site_id
 _symmetry_equiv_pos_as_xyz
  1  'x, y, z'
loop_
 _atom_site_type_symbol
 _atom_site_label
 _atom_site_symmetry_multiplicity
 _atom_site_fract_x
 _atom_site_fract_y
 _atom_site_fract_z
 _atom_site_occupancy
  Ni  Ni0  1  0.25000000  0.25000000  0.25000000  1
  Au  Au1  1  0.75000000  0.75000000  0.75000000  1
  Na  Na2  1  0.00000000  0.00000000  0.00000000  1
  Zn  Zn3  1  0.50000000  0.50000000  0.50000000  1
  Cl  Cl4  1  0.75000000  0.75000000  0.25000000  1
  Cl  Cl5  1  0.25000000  0.25000000  0.75000000  1
  Cl  Cl6  1  0.75000000  0.25000000  0.75000000  1
  Cl  Cl7  1  0.25000000  0.75000000  0.25000000  1
  Cl  Cl8  1  0.25000000  0.75000000  0.75000000  1
  Cl  Cl9  1  0.75000000  0.25000000  0.25000000  1
