# generated using pymatgen
data_EuTl2NiI6
_symmetry_space_group_name_H-M   'P 1'
_cell_length_a   9.37784611
_cell_length_b   9.37784585
_cell_length_c   9.37784600
_cell_angle_alpha   59.99999948
_cell_angle_beta   60.00000040
_cell_angle_gamma   59.99999935
_symmetry_Int_Tables_number   1
_chemical_formula_structural   EuTl2NiI6
_chemical_formula_sum   'Eu1 Tl2 Ni1 I6'
_cell_volume   583.16880956
_cell_formula_units_Z   1
loop_
 _symmetry_equiv_pos_site_id
 _symmetry_equiv_pos_as_xyz
  1  'x, y, z'
loop_
 _atom_site_type_symbol
 _atom_site_label
 _atom_site_symmetry_multiplicity
 _atom_site_fract_x
 _atom_site_fract_y
 _atom_site_fract_z
 _atom_site_occupancy
  Ni  Ni0  1  0.25000000  0.25000000  0.25000000  1
  Eu  Eu1  1  0.75000000  0.75000000  0.75000000  1
  Tl  Tl2  1  0.00000000  0.00000000  0.00000000  1
  Tl  Tl3  1  0.50000000  0.50000000  0.50000000  1
  I  I4  1  0.75000000  0.75000000  0.25000000  1
  I  I5  1  0.25000000  0.25000000  0.75000000  1
  I  I6  1  0.75000000  0.25000000  0.75000000  1
  I  I7  1  0.25000000  0.75000000  0.25000000  1
  I  I8  1  0.25000000  0.75000000  0.75000000  1
  I  I9  1  0.75000000  0.25000000  0.25000000  1
