# generated using pymatgen
data_Cu2NiSnBr6
_symmetry_space_group_name_H-M   'P 1'
_cell_length_a   6.96844131
_cell_length_b   6.96844115
_cell_length_c   6.96844100
_cell_angle_alpha   59.99999596
_cell_angle_beta   59.99999672
_cell_angle_gamma   59.99999431
_symmetry_Int_Tables_number   1
_chemical_formula_structural   Cu2NiSnBr6
_chemical_formula_sum   'Cu2 Ni1 Sn1 Br6'
_cell_volume   239.27199463
_cell_formula_units_Z   1
loop_
 _symmetry_equiv_pos_site_id
 _symmetry_equiv_pos_as_xyz
  1  'x, y, z'
loop_
 _atom_site_type_symbol
 _atom_site_label
 _atom_site_symmetry_multiplicity
 _atom_site_fract_x
 _atom_site_fract_y
 _atom_site_fract_z
 _atom_site_occupancy
  Ni  Ni0  1  0.25000000  0.25000000  0.25000000  1
  Sn  Sn1  1  0.75000000  0.75000000  0.75000000  1
  Cu  Cu2  1  0.00000000  0.00000000  0.00000000  1
  Cu  Cu3  1  0.50000000  0.50000000  0.50000000  1
  Br  Br4  1  0.75000000  0.75000000  0.25000000  1
  Br  Br5  1  0.25000000  0.25000000  0.75000000  1
  Br  Br6  1  0.75000000  0.25000000  0.75000000  1
  Br  Br7  1  0.25000000  0.75000000  0.25000000  1
  Br  Br8  1  0.25000000  0.75000000  0.75000000  1
  Br  Br9  1  0.75000000  0.25000000  0.25000000  1
