# generated using pymatgen
data_TlZnNiHgF6
_symmetry_space_group_name_H-M   'P 1'
_cell_length_a   7.23645623
_cell_length_b   7.23645637
_cell_length_c   7.23645700
_cell_angle_alpha   60.00000168
_cell_angle_beta   60.00000107
_cell_angle_gamma   60.00000132
_symmetry_Int_Tables_number   1
_chemical_formula_structural   TlZnNiHgF6
_chemical_formula_sum   'Tl1 Zn1 Ni1 Hg1 F6'
_cell_volume   267.95563163
_cell_formula_units_Z   1
loop_
 _symmetry_equiv_pos_site_id
 _symmetry_equiv_pos_as_xyz
  1  'x, y, z'
loop_
 _atom_site_type_symbol
 _atom_site_label
 _atom_site_symmetry_multiplicity
 _atom_site_fract_x
 _atom_site_fract_y
 _atom_site_fract_z
 _atom_site_occupancy
  Ni  Ni0  1  0.25000000  0.25000000  0.25000000  1
  Zn  Zn1  1  0.75000000  0.75000000  0.75000000  1
  Hg  Hg2  1  0.00000000  0.00000000  0.00000000  1
  Tl  Tl3  1  0.50000000  0.50000000  0.50000000  1
  F  F4  1  0.75000000  0.75000000  0.25000000  1
  F  F5  1  0.25000000  0.25000000  0.75000000  1
  F  F6  1  0.75000000  0.25000000  0.75000000  1
  F  F7  1  0.25000000  0.75000000  0.25000000  1
  F  F8  1  0.25000000  0.75000000  0.75000000  1
  F  F9  1  0.75000000  0.25000000  0.25000000  1
