# generated using pymatgen
data_SrTlAgPdF6
_symmetry_space_group_name_H-M   'P 1'
_cell_length_a   7.15279819
_cell_length_b   7.15279793
_cell_length_c   7.15279800
_cell_angle_alpha   59.99999968
_cell_angle_beta   60.00000090
_cell_angle_gamma   59.99999938
_symmetry_Int_Tables_number   1
_chemical_formula_structural   SrTlAgPdF6
_chemical_formula_sum   'Sr1 Tl1 Ag1 Pd1 F6'
_cell_volume   258.76938336
_cell_formula_units_Z   1
loop_
 _symmetry_equiv_pos_site_id
 _symmetry_equiv_pos_as_xyz
  1  'x, y, z'
loop_
 _atom_site_type_symbol
 _atom_site_label
 _atom_site_symmetry_multiplicity
 _atom_site_fract_x
 _atom_site_fract_y
 _atom_site_fract_z
 _atom_site_occupancy
  Pd  Pd0  1  0.25000000  0.25000000  0.25000000  1
  Ag  Ag1  1  0.75000000  0.75000000  0.75000000  1
  Sr  Sr2  1  0.00000000  0.00000000  0.00000000  1
  Tl  Tl3  1  0.50000000  0.50000000  0.50000000  1
  F  F4  1  0.75000000  0.75000000  0.25000000  1
  F  F5  1  0.25000000  0.25000000  0.75000000  1
  F  F6  1  0.75000000  0.25000000  0.75000000  1
  F  F7  1  0.25000000  0.75000000  0.25000000  1
  F  F8  1  0.25000000  0.75000000  0.75000000  1
  F  F9  1  0.75000000  0.25000000  0.25000000  1
