# generated using pymatgen
data_CsRbSnPdI6
_symmetry_space_group_name_H-M   'P 1'
_cell_length_a   10.25727412
_cell_length_b   10.25727389
_cell_length_c   10.25727400
_cell_angle_alpha   59.99999965
_cell_angle_beta   60.00000040
_cell_angle_gamma   59.99999951
_symmetry_Int_Tables_number   1
_chemical_formula_structural   CsRbSnPdI6
_chemical_formula_sum   'Cs1 Rb1 Sn1 Pd1 I6'
_cell_volume   763.09897803
_cell_formula_units_Z   1
loop_
 _symmetry_equiv_pos_site_id
 _symmetry_equiv_pos_as_xyz
  1  'x, y, z'
loop_
 _atom_site_type_symbol
 _atom_site_label
 _atom_site_symmetry_multiplicity
 _atom_site_fract_x
 _atom_site_fract_y
 _atom_site_fract_z
 _atom_site_occupancy
  Pd  Pd0  1  0.25000000  0.25000000  0.25000000  1
  Sn  Sn1  1  0.75000000  0.75000000  0.75000000  1
  Rb  Rb2  1  0.00000000  0.00000000  0.00000000  1
  Cs  Cs3  1  0.50000000  0.50000000  0.50000000  1
  I  I4  1  0.75000000  0.75000000  0.25000000  1
  I  I5  1  0.25000000  0.25000000  0.75000000  1
  I  I6  1  0.75000000  0.25000000  0.75000000  1
  I  I7  1  0.25000000  0.75000000  0.25000000  1
  I  I8  1  0.25000000  0.75000000  0.75000000  1
  I  I9  1  0.75000000  0.25000000  0.25000000  1
