# generated using pymatgen
data_TlAgPdPtF6
_symmetry_space_group_name_H-M   'P 1'
_cell_length_a   6.17146931
_cell_length_b   6.17146908
_cell_length_c   6.17146900
_cell_angle_alpha   59.99999505
_cell_angle_beta   59.99999629
_cell_angle_gamma   59.99999319
_symmetry_Int_Tables_number   1
_chemical_formula_structural   TlAgPdPtF6
_chemical_formula_sum   'Tl1 Ag1 Pd1 Pt1 F6'
_cell_volume   166.20750645
_cell_formula_units_Z   1
loop_
 _symmetry_equiv_pos_site_id
 _symmetry_equiv_pos_as_xyz
  1  'x, y, z'
loop_
 _atom_site_type_symbol
 _atom_site_label
 _atom_site_symmetry_multiplicity
 _atom_site_fract_x
 _atom_site_fract_y
 _atom_site_fract_z
 _atom_site_occupancy
  Pd  Pd0  1  0.25000000  0.25000000  0.25000000  1
  Tl  Tl1  1  0.75000000  0.75000000  0.75000000  1
  Ag  Ag2  1  0.00000000  0.00000000  0.00000000  1
  Pt  Pt3  1  0.50000000  0.50000000  0.50000000  1
  F  F4  1  0.75000000  0.75000000  0.25000000  1
  F  F5  1  0.25000000  0.25000000  0.75000000  1
  F  F6  1  0.75000000  0.25000000  0.75000000  1
  F  F7  1  0.25000000  0.75000000  0.25000000  1
  F  F8  1  0.25000000  0.75000000  0.75000000  1
  F  F9  1  0.75000000  0.25000000  0.25000000  1
