# generated using pymatgen
data_LiPmTlHgF6
_symmetry_space_group_name_H-M   'P 1'
_cell_length_a   6.08268412
_cell_length_b   6.08268436
_cell_length_c   6.08268400
_cell_angle_alpha   60.00000197
_cell_angle_beta   60.00000063
_cell_angle_gamma   59.99999863
_symmetry_Int_Tables_number   1
_chemical_formula_structural   LiPmTlHgF6
_chemical_formula_sum   'Li1 Pm1 Tl1 Hg1 F6'
_cell_volume   159.13686775
_cell_formula_units_Z   1
loop_
 _symmetry_equiv_pos_site_id
 _symmetry_equiv_pos_as_xyz
  1  'x, y, z'
loop_
 _atom_site_type_symbol
 _atom_site_label
 _atom_site_symmetry_multiplicity
 _atom_site_fract_x
 _atom_site_fract_y
 _atom_site_fract_z
 _atom_site_occupancy
  Pm  Pm0  1  0.25000000  0.25000000  0.25000000  1
  Tl  Tl1  1  0.75000000  0.75000000  0.75000000  1
  Li  Li2  1  0.00000000  0.00000000  0.00000000  1
  Hg  Hg3  1  0.50000000  0.50000000  0.50000000  1
  F  F4  1  0.75000000  0.75000000  0.25000000  1
  F  F5  1  0.25000000  0.25000000  0.75000000  1
  F  F6  1  0.75000000  0.25000000  0.75000000  1
  F  F7  1  0.25000000  0.75000000  0.25000000  1
  F  F8  1  0.25000000  0.75000000  0.75000000  1
  F  F9  1  0.75000000  0.25000000  0.25000000  1
