# generated using pymatgen
data_Rb2SrCaF6
_symmetry_space_group_name_H-M   'P 1'
_cell_length_a   6.56124538
_cell_length_b   6.56124508
_cell_length_c   6.56124500
_cell_angle_alpha   59.99999536
_cell_angle_beta   59.99999687
_cell_angle_gamma   59.99999931
_symmetry_Int_Tables_number   1
_chemical_formula_structural   Rb2SrCaF6
_chemical_formula_sum   'Rb2 Sr1 Ca1 F6'
_cell_volume   199.73021487
_cell_formula_units_Z   1
loop_
 _symmetry_equiv_pos_site_id
 _symmetry_equiv_pos_as_xyz
  1  'x, y, z'
loop_
 _atom_site_type_symbol
 _atom_site_label
 _atom_site_symmetry_multiplicity
 _atom_site_fract_x
 _atom_site_fract_y
 _atom_site_fract_z
 _atom_site_occupancy
  Rb  Rb0  1  0.25000000  0.25000000  0.25000000  1
  Rb  Rb1  1  0.75000000  0.75000000  0.75000000  1
  Ca  Ca2  1  0.00000000  0.00000000  0.00000000  1
  Sr  Sr3  1  0.50000000  0.50000000  0.50000000  1
  F  F4  1  0.75000000  0.75000000  0.25000000  1
  F  F5  1  0.25000000  0.25000000  0.75000000  1
  F  F6  1  0.75000000  0.25000000  0.75000000  1
  F  F7  1  0.25000000  0.75000000  0.25000000  1
  F  F8  1  0.25000000  0.75000000  0.75000000  1
  F  F9  1  0.75000000  0.25000000  0.25000000  1
