# generated using pymatgen
data_RbEuMgAgF6
_symmetry_space_group_name_H-M   'P 1'
_cell_length_a   6.52332461
_cell_length_b   6.52332437
_cell_length_c   6.52332400
_cell_angle_alpha   60.00000190
_cell_angle_beta   60.00000307
_cell_angle_gamma   59.99999795
_symmetry_Int_Tables_number   1
_chemical_formula_structural   RbEuMgAgF6
_chemical_formula_sum   'Rb1 Eu1 Mg1 Ag1 F6'
_cell_volume   196.28717545
_cell_formula_units_Z   1
loop_
 _symmetry_equiv_pos_site_id
 _symmetry_equiv_pos_as_xyz
  1  'x, y, z'
loop_
 _atom_site_type_symbol
 _atom_site_label
 _atom_site_symmetry_multiplicity
 _atom_site_fract_x
 _atom_site_fract_y
 _atom_site_fract_z
 _atom_site_occupancy
  Rb  Rb0  1  0.25000000  0.25000000  0.25000000  1
  Ag  Ag1  1  0.75000000  0.75000000  0.75000000  1
  Mg  Mg2  1  0.00000000  0.00000000  0.00000000  1
  Eu  Eu3  1  0.50000000  0.50000000  0.50000000  1
  F  F4  1  0.75000000  0.75000000  0.25000000  1
  F  F5  1  0.25000000  0.25000000  0.75000000  1
  F  F6  1  0.75000000  0.25000000  0.75000000  1
  F  F7  1  0.25000000  0.75000000  0.25000000  1
  F  F8  1  0.25000000  0.75000000  0.75000000  1
  F  F9  1  0.75000000  0.25000000  0.25000000  1
