# generated using pymatgen
data_RbBeCrAuI6
_symmetry_space_group_name_H-M   'P 1'
_cell_length_a   7.82822053
_cell_length_b   7.82822027
_cell_length_c   7.82822000
_cell_angle_alpha   60.00000112
_cell_angle_beta   60.00000225
_cell_angle_gamma   59.99999793
_symmetry_Int_Tables_number   1
_chemical_formula_structural   RbBeCrAuI6
_chemical_formula_sum   'Rb1 Be1 Cr1 Au1 I6'
_cell_volume   339.21427303
_cell_formula_units_Z   1
loop_
 _symmetry_equiv_pos_site_id
 _symmetry_equiv_pos_as_xyz
  1  'x, y, z'
loop_
 _atom_site_type_symbol
 _atom_site_label
 _atom_site_symmetry_multiplicity
 _atom_site_fract_x
 _atom_site_fract_y
 _atom_site_fract_z
 _atom_site_occupancy
  Rb  Rb0  1  0.25000000  0.25000000  0.25000000  1
  Au  Au1  1  0.75000000  0.75000000  0.75000000  1
  Be  Be2  1  0.00000000  0.00000000  0.00000000  1
  Cr  Cr3  1  0.50000000  0.50000000  0.50000000  1
  I  I4  1  0.75000000  0.75000000  0.25000000  1
  I  I5  1  0.25000000  0.25000000  0.75000000  1
  I  I6  1  0.75000000  0.25000000  0.75000000  1
  I  I7  1  0.25000000  0.75000000  0.25000000  1
  I  I8  1  0.25000000  0.75000000  0.75000000  1
  I  I9  1  0.75000000  0.25000000  0.25000000  1
