# generated using pymatgen
data_RbBaNaTiBr6
_symmetry_space_group_name_H-M   'P 1'
_cell_length_a   7.95576870
_cell_length_b   7.95576869
_cell_length_c   7.95576900
_cell_angle_alpha   60.00000286
_cell_angle_beta   60.00000290
_cell_angle_gamma   59.99999949
_symmetry_Int_Tables_number   1
_chemical_formula_structural   RbBaNaTiBr6
_chemical_formula_sum   'Rb1 Ba1 Na1 Ti1 Br6'
_cell_volume   356.06679859
_cell_formula_units_Z   1
loop_
 _symmetry_equiv_pos_site_id
 _symmetry_equiv_pos_as_xyz
  1  'x, y, z'
loop_
 _atom_site_type_symbol
 _atom_site_label
 _atom_site_symmetry_multiplicity
 _atom_site_fract_x
 _atom_site_fract_y
 _atom_site_fract_z
 _atom_site_occupancy
  Rb  Rb0  1  0.25000000  0.25000000  0.25000000  1
  Ba  Ba1  1  0.75000000  0.75000000  0.75000000  1
  Na  Na2  1  0.00000000  0.00000000  0.00000000  1
  Ti  Ti3  1  0.50000000  0.50000000  0.50000000  1
  Br  Br4  1  0.75000000  0.75000000  0.25000000  1
  Br  Br5  1  0.25000000  0.25000000  0.75000000  1
  Br  Br6  1  0.75000000  0.25000000  0.75000000  1
  Br  Br7  1  0.25000000  0.75000000  0.25000000  1
  Br  Br8  1  0.25000000  0.75000000  0.75000000  1
  Br  Br9  1  0.75000000  0.25000000  0.25000000  1
