# generated using pymatgen
data_RbBaMgAgCl6
_symmetry_space_group_name_H-M   'P 1'
_cell_length_a   7.11750823
_cell_length_b   7.11750816
_cell_length_c   7.11750800
_cell_angle_alpha   60.00000077
_cell_angle_beta   60.00000105
_cell_angle_gamma   59.99999773
_symmetry_Int_Tables_number   1
_chemical_formula_structural   RbBaMgAgCl6
_chemical_formula_sum   'Rb1 Ba1 Mg1 Ag1 Cl6'
_cell_volume   254.95816009
_cell_formula_units_Z   1
loop_
 _symmetry_equiv_pos_site_id
 _symmetry_equiv_pos_as_xyz
  1  'x, y, z'
loop_
 _atom_site_type_symbol
 _atom_site_label
 _atom_site_symmetry_multiplicity
 _atom_site_fract_x
 _atom_site_fract_y
 _atom_site_fract_z
 _atom_site_occupancy
  Rb  Rb0  1  0.25000000  0.25000000  0.25000000  1
  Ba  Ba1  1  0.75000000  0.75000000  0.75000000  1
  Mg  Mg2  1  0.00000000  0.00000000  0.00000000  1
  Ag  Ag3  1  0.50000000  0.50000000  0.50000000  1
  Cl  Cl4  1  0.75000000  0.75000000  0.25000000  1
  Cl  Cl5  1  0.25000000  0.25000000  0.75000000  1
  Cl  Cl6  1  0.75000000  0.25000000  0.75000000  1
  Cl  Cl7  1  0.25000000  0.75000000  0.25000000  1
  Cl  Cl8  1  0.25000000  0.75000000  0.75000000  1
  Cl  Cl9  1  0.75000000  0.25000000  0.25000000  1
