# generated using pymatgen
data_CsRb(BeI3)2
_symmetry_space_group_name_H-M   'P 1'
_cell_length_a   7.72326502
_cell_length_b   7.72326450
_cell_length_c   7.72326500
_cell_angle_alpha   60.00000212
_cell_angle_beta   60.00000436
_cell_angle_gamma   59.99999820
_symmetry_Int_Tables_number   1
_chemical_formula_structural   CsRb(BeI3)2
_chemical_formula_sum   'Cs1 Rb1 Be2 I6'
_cell_volume   325.75253187
_cell_formula_units_Z   1
loop_
 _symmetry_equiv_pos_site_id
 _symmetry_equiv_pos_as_xyz
  1  'x, y, z'
loop_
 _atom_site_type_symbol
 _atom_site_label
 _atom_site_symmetry_multiplicity
 _atom_site_fract_x
 _atom_site_fract_y
 _atom_site_fract_z
 _atom_site_occupancy
  Rb  Rb0  1  0.25000000  0.25000000  0.25000000  1
  Cs  Cs1  1  0.75000000  0.75000000  0.75000000  1
  Be  Be2  1  0.00000000  0.00000000  0.00000000  1
  Be  Be3  1  0.50000000  0.50000000  0.50000000  1
  I  I4  1  0.75000000  0.75000000  0.25000000  1
  I  I5  1  0.25000000  0.25000000  0.75000000  1
  I  I6  1  0.75000000  0.25000000  0.75000000  1
  I  I7  1  0.25000000  0.75000000  0.25000000  1
  I  I8  1  0.25000000  0.75000000  0.75000000  1
  I  I9  1  0.75000000  0.25000000  0.25000000  1
