# generated using pymatgen
data_CsRbNaTiCl6
_symmetry_space_group_name_H-M   'P 1'
_cell_length_a   7.30953165
_cell_length_b   7.30953205
_cell_length_c   7.30953200
_cell_angle_alpha   60.00000025
_cell_angle_beta   59.99999843
_cell_angle_gamma   60.00000077
_symmetry_Int_Tables_number   1
_chemical_formula_structural   CsRbNaTiCl6
_chemical_formula_sum   'Cs1 Rb1 Na1 Ti1 Cl6'
_cell_volume   276.15550053
_cell_formula_units_Z   1
loop_
 _symmetry_equiv_pos_site_id
 _symmetry_equiv_pos_as_xyz
  1  'x, y, z'
loop_
 _atom_site_type_symbol
 _atom_site_label
 _atom_site_symmetry_multiplicity
 _atom_site_fract_x
 _atom_site_fract_y
 _atom_site_fract_z
 _atom_site_occupancy
  Rb  Rb0  1  0.25000000  0.25000000  0.25000000  1
  Cs  Cs1  1  0.75000000  0.75000000  0.75000000  1
  Na  Na2  1  0.00000000  0.00000000  0.00000000  1
  Ti  Ti3  1  0.50000000  0.50000000  0.50000000  1
  Cl  Cl4  1  0.75000000  0.75000000  0.25000000  1
  Cl  Cl5  1  0.25000000  0.25000000  0.75000000  1
  Cl  Cl6  1  0.75000000  0.25000000  0.75000000  1
  Cl  Cl7  1  0.25000000  0.75000000  0.25000000  1
  Cl  Cl8  1  0.25000000  0.75000000  0.75000000  1
  Cl  Cl9  1  0.75000000  0.25000000  0.25000000  1
