# generated using pymatgen
data_RbGd(CuI3)2
_symmetry_space_group_name_H-M   'P 1'
_cell_length_a   7.45432851
_cell_length_b   7.45432851
_cell_length_c   7.45432800
_cell_angle_alpha   60.00000227
_cell_angle_beta   60.00000224
_cell_angle_gamma   60.00000408
_symmetry_Int_Tables_number   1
_chemical_formula_structural   RbGd(CuI3)2
_chemical_formula_sum   'Rb1 Gd1 Cu2 I6'
_cell_volume   292.89407385
_cell_formula_units_Z   1
loop_
 _symmetry_equiv_pos_site_id
 _symmetry_equiv_pos_as_xyz
  1  'x, y, z'
loop_
 _atom_site_type_symbol
 _atom_site_label
 _atom_site_symmetry_multiplicity
 _atom_site_fract_x
 _atom_site_fract_y
 _atom_site_fract_z
 _atom_site_occupancy
  Rb  Rb0  1  0.25000000  0.25000000  0.25000000  1
  Gd  Gd1  1  0.75000000  0.75000000  0.75000000  1
  Cu  Cu2  1  0.00000000  0.00000000  0.00000000  1
  Cu  Cu3  1  0.50000000  0.50000000  0.50000000  1
  I  I4  1  0.75000000  0.75000000  0.25000000  1
  I  I5  1  0.25000000  0.25000000  0.75000000  1
  I  I6  1  0.75000000  0.25000000  0.75000000  1
  I  I7  1  0.25000000  0.75000000  0.25000000  1
  I  I8  1  0.25000000  0.75000000  0.75000000  1
  I  I9  1  0.75000000  0.25000000  0.25000000  1
