# generated using pymatgen
data_RbNa2GdI6
_symmetry_space_group_name_H-M   'P 1'
_cell_length_a   8.52003993
_cell_length_b   8.52004047
_cell_length_c   8.52004000
_cell_angle_alpha   60.00000184
_cell_angle_beta   59.99999973
_cell_angle_gamma   59.99999968
_symmetry_Int_Tables_number   1
_chemical_formula_structural   RbNa2GdI6
_chemical_formula_sum   'Rb1 Na2 Gd1 I6'
_cell_volume   437.33066234
_cell_formula_units_Z   1
loop_
 _symmetry_equiv_pos_site_id
 _symmetry_equiv_pos_as_xyz
  1  'x, y, z'
loop_
 _atom_site_type_symbol
 _atom_site_label
 _atom_site_symmetry_multiplicity
 _atom_site_fract_x
 _atom_site_fract_y
 _atom_site_fract_z
 _atom_site_occupancy
  Rb  Rb0  1  0.25000000  0.25000000  0.25000000  1
  Gd  Gd1  1  0.75000000  0.75000000  0.75000000  1
  Na  Na2  1  0.00000000  0.00000000  0.00000000  1
  Na  Na3  1  0.50000000  0.50000000  0.50000000  1
  I  I4  1  0.75000000  0.75000000  0.25000000  1
  I  I5  1  0.25000000  0.25000000  0.75000000  1
  I  I6  1  0.75000000  0.25000000  0.75000000  1
  I  I7  1  0.25000000  0.75000000  0.25000000  1
  I  I8  1  0.25000000  0.75000000  0.75000000  1
  I  I9  1  0.75000000  0.25000000  0.25000000  1
