# generated using pymatgen
data_RbSrZnHgCl6
_symmetry_space_group_name_H-M   'P 1'
_cell_length_a   7.84594999
_cell_length_b   7.84594981
_cell_length_c   7.84595000
_cell_angle_alpha   59.99999920
_cell_angle_beta   59.99999994
_cell_angle_gamma   59.99999678
_symmetry_Int_Tables_number   1
_chemical_formula_structural   RbSrZnHgCl6
_chemical_formula_sum   'Rb1 Sr1 Zn1 Hg1 Cl6'
_cell_volume   341.52428118
_cell_formula_units_Z   1
loop_
 _symmetry_equiv_pos_site_id
 _symmetry_equiv_pos_as_xyz
  1  'x, y, z'
loop_
 _atom_site_type_symbol
 _atom_site_label
 _atom_site_symmetry_multiplicity
 _atom_site_fract_x
 _atom_site_fract_y
 _atom_site_fract_z
 _atom_site_occupancy
  Rb  Rb0  1  0.25000000  0.25000000  0.25000000  1
  Hg  Hg1  1  0.75000000  0.75000000  0.75000000  1
  Zn  Zn2  1  0.00000000  0.00000000  0.00000000  1
  Sr  Sr3  1  0.50000000  0.50000000  0.50000000  1
  Cl  Cl4  1  0.75000000  0.75000000  0.25000000  1
  Cl  Cl5  1  0.25000000  0.25000000  0.75000000  1
  Cl  Cl6  1  0.75000000  0.25000000  0.75000000  1
  Cl  Cl7  1  0.25000000  0.75000000  0.25000000  1
  Cl  Cl8  1  0.25000000  0.75000000  0.75000000  1
  Cl  Cl9  1  0.75000000  0.25000000  0.25000000  1
