# generated using pymatgen
data_RbMg2HgF6
_symmetry_space_group_name_H-M   'P 1'
_cell_length_a   5.78176133
_cell_length_b   5.78176128
_cell_length_c   5.78176100
_cell_angle_alpha   59.99999590
_cell_angle_beta   59.99999618
_cell_angle_gamma   59.99999387
_symmetry_Int_Tables_number   1
_chemical_formula_structural   RbMg2HgF6
_chemical_formula_sum   'Rb1 Mg2 Hg1 F6'
_cell_volume   136.66754977
_cell_formula_units_Z   1
loop_
 _symmetry_equiv_pos_site_id
 _symmetry_equiv_pos_as_xyz
  1  'x, y, z'
loop_
 _atom_site_type_symbol
 _atom_site_label
 _atom_site_symmetry_multiplicity
 _atom_site_fract_x
 _atom_site_fract_y
 _atom_site_fract_z
 _atom_site_occupancy
  Rb  Rb0  1  0.25000000  0.25000000  0.25000000  1
  Hg  Hg1  1  0.75000000  0.75000000  0.75000000  1
  Mg  Mg2  1  0.00000000  0.00000000  0.00000000  1
  Mg  Mg3  1  0.50000000  0.50000000  0.50000000  1
  F  F4  1  0.75000000  0.75000000  0.25000000  1
  F  F5  1  0.25000000  0.25000000  0.75000000  1
  F  F6  1  0.75000000  0.25000000  0.75000000  1
  F  F7  1  0.25000000  0.75000000  0.25000000  1
  F  F8  1  0.25000000  0.75000000  0.75000000  1
  F  F9  1  0.75000000  0.25000000  0.25000000  1
