# generated using pymatgen
data_RbLiZnPbCl6
_symmetry_space_group_name_H-M   'P 1'
_cell_length_a   6.86902735
_cell_length_b   6.86902712
_cell_length_c   6.86902700
_cell_angle_alpha   59.99999574
_cell_angle_beta   59.99999688
_cell_angle_gamma   59.99999956
_symmetry_Int_Tables_number   1
_chemical_formula_structural   RbLiZnPbCl6
_chemical_formula_sum   'Rb1 Li1 Zn1 Pb1 Cl6'
_cell_volume   229.17681346
_cell_formula_units_Z   1
loop_
 _symmetry_equiv_pos_site_id
 _symmetry_equiv_pos_as_xyz
  1  'x, y, z'
loop_
 _atom_site_type_symbol
 _atom_site_label
 _atom_site_symmetry_multiplicity
 _atom_site_fract_x
 _atom_site_fract_y
 _atom_site_fract_z
 _atom_site_occupancy
  Rb  Rb0  1  0.25000000  0.25000000  0.25000000  1
  Pb  Pb1  1  0.75000000  0.75000000  0.75000000  1
  Li  Li2  1  0.00000000  0.00000000  0.00000000  1
  Zn  Zn3  1  0.50000000  0.50000000  0.50000000  1
  Cl  Cl4  1  0.75000000  0.75000000  0.25000000  1
  Cl  Cl5  1  0.25000000  0.25000000  0.75000000  1
  Cl  Cl6  1  0.75000000  0.25000000  0.75000000  1
  Cl  Cl7  1  0.25000000  0.75000000  0.25000000  1
  Cl  Cl8  1  0.25000000  0.75000000  0.75000000  1
  Cl  Cl9  1  0.75000000  0.25000000  0.25000000  1
