# generated using pymatgen
data_LiScCuAgCl6
_symmetry_space_group_name_H-M   'P 1'
_cell_length_a   6.50555757
_cell_length_b   6.50555816
_cell_length_c   6.50555800
_cell_angle_alpha   60.00000081
_cell_angle_beta   59.99999783
_cell_angle_gamma   59.99999860
_symmetry_Int_Tables_number   1
_chemical_formula_structural   LiScCuAgCl6
_chemical_formula_sum   'Li1 Sc1 Cu1 Ag1 Cl6'
_cell_volume   194.68775388
_cell_formula_units_Z   1
loop_
 _symmetry_equiv_pos_site_id
 _symmetry_equiv_pos_as_xyz
  1  'x, y, z'
loop_
 _atom_site_type_symbol
 _atom_site_label
 _atom_site_symmetry_multiplicity
 _atom_site_fract_x
 _atom_site_fract_y
 _atom_site_fract_z
 _atom_site_occupancy
  Sc  Sc0  1  0.25000000  0.25000000  0.25000000  1
  Ag  Ag1  1  0.75000000  0.75000000  0.75000000  1
  Li  Li2  1  0.00000000  0.00000000  0.00000000  1
  Cu  Cu3  1  0.50000000  0.50000000  0.50000000  1
  Cl  Cl4  1  0.75000000  0.75000000  0.25000000  1
  Cl  Cl5  1  0.25000000  0.25000000  0.75000000  1
  Cl  Cl6  1  0.75000000  0.25000000  0.75000000  1
  Cl  Cl7  1  0.25000000  0.75000000  0.25000000  1
  Cl  Cl8  1  0.25000000  0.75000000  0.75000000  1
  Cl  Cl9  1  0.75000000  0.25000000  0.25000000  1
