# generated using pymatgen
data_LiSnHgAuI6
_symmetry_space_group_name_H-M   'P 1'
_cell_length_a   8.20729032
_cell_length_b   8.20728995
_cell_length_c   8.20729000
_cell_angle_alpha   59.99999979
_cell_angle_beta   60.00000127
_cell_angle_gamma   59.99999704
_symmetry_Int_Tables_number   1
_chemical_formula_structural   LiSnHgAuI6
_chemical_formula_sum   'Li1 Sn1 Hg1 Au1 I6'
_cell_volume   390.91681135
_cell_formula_units_Z   1
loop_
 _symmetry_equiv_pos_site_id
 _symmetry_equiv_pos_as_xyz
  1  'x, y, z'
loop_
 _atom_site_type_symbol
 _atom_site_label
 _atom_site_symmetry_multiplicity
 _atom_site_fract_x
 _atom_site_fract_y
 _atom_site_fract_z
 _atom_site_occupancy
  Sn  Sn0  1  0.25000000  0.25000000  0.25000000  1
  Au  Au1  1  0.75000000  0.75000000  0.75000000  1
  Li  Li2  1  0.00000000  0.00000000  0.00000000  1
  Hg  Hg3  1  0.50000000  0.50000000  0.50000000  1
  I  I4  1  0.75000000  0.75000000  0.25000000  1
  I  I5  1  0.25000000  0.25000000  0.75000000  1
  I  I6  1  0.75000000  0.25000000  0.75000000  1
  I  I7  1  0.25000000  0.75000000  0.25000000  1
  I  I8  1  0.25000000  0.75000000  0.75000000  1
  I  I9  1  0.75000000  0.25000000  0.25000000  1
