# generated using pymatgen
data_SnPb(AuCl3)2
_symmetry_space_group_name_H-M   'P 1'
_cell_length_a   6.94826835
_cell_length_b   6.94826789
_cell_length_c   6.94826800
_cell_angle_alpha   59.99999947
_cell_angle_beta   60.00000165
_cell_angle_gamma   60.00000167
_symmetry_Int_Tables_number   1
_chemical_formula_structural   SnPb(AuCl3)2
_chemical_formula_sum   'Sn1 Pb1 Au2 Cl6'
_cell_volume   237.20001356
_cell_formula_units_Z   1
loop_
 _symmetry_equiv_pos_site_id
 _symmetry_equiv_pos_as_xyz
  1  'x, y, z'
loop_
 _atom_site_type_symbol
 _atom_site_label
 _atom_site_symmetry_multiplicity
 _atom_site_fract_x
 _atom_site_fract_y
 _atom_site_fract_z
 _atom_site_occupancy
  Sn  Sn0  1  0.25000000  0.25000000  0.25000000  1
  Pb  Pb1  1  0.75000000  0.75000000  0.75000000  1
  Au  Au2  1  0.00000000  0.00000000  0.00000000  1
  Au  Au3  1  0.50000000  0.50000000  0.50000000  1
  Cl  Cl4  1  0.75000000  0.75000000  0.25000000  1
  Cl  Cl5  1  0.25000000  0.25000000  0.75000000  1
  Cl  Cl6  1  0.75000000  0.25000000  0.75000000  1
  Cl  Cl7  1  0.25000000  0.75000000  0.25000000  1
  Cl  Cl8  1  0.25000000  0.75000000  0.75000000  1
  Cl  Cl9  1  0.75000000  0.25000000  0.25000000  1
