# generated using pymatgen
data_RbSrTlPtF6
_symmetry_space_group_name_H-M   'P 1'
_cell_length_a   7.47633968
_cell_length_b   7.47633983
_cell_length_c   7.47634000
_cell_angle_alpha   59.99999924
_cell_angle_beta   59.99999859
_cell_angle_gamma   60.00000227
_symmetry_Int_Tables_number   1
_chemical_formula_structural   RbSrTlPtF6
_chemical_formula_sum   'Rb1 Sr1 Tl1 Pt1 F6'
_cell_volume   295.49633895
_cell_formula_units_Z   1
loop_
 _symmetry_equiv_pos_site_id
 _symmetry_equiv_pos_as_xyz
  1  'x, y, z'
loop_
 _atom_site_type_symbol
 _atom_site_label
 _atom_site_symmetry_multiplicity
 _atom_site_fract_x
 _atom_site_fract_y
 _atom_site_fract_z
 _atom_site_occupancy
  Sr  Sr0  1  0.25000000  0.25000000  0.25000000  1
  Pt  Pt1  1  0.75000000  0.75000000  0.75000000  1
  Rb  Rb2  1  0.00000000  0.00000000  0.00000000  1
  Tl  Tl3  1  0.50000000  0.50000000  0.50000000  1
  F  F4  1  0.75000000  0.75000000  0.25000000  1
  F  F5  1  0.25000000  0.25000000  0.75000000  1
  F  F6  1  0.75000000  0.25000000  0.75000000  1
  F  F7  1  0.25000000  0.75000000  0.25000000  1
  F  F8  1  0.25000000  0.75000000  0.75000000  1
  F  F9  1  0.75000000  0.25000000  0.25000000  1
