# generated using pymatgen
data_CsRbSrSnCl6
_symmetry_space_group_name_H-M   'P 1'
_cell_length_a   9.14463096
_cell_length_b   9.14463091
_cell_length_c   9.14463100
_cell_angle_alpha   60.00000331
_cell_angle_beta   60.00000348
_cell_angle_gamma   60.00000006
_symmetry_Int_Tables_number   1
_chemical_formula_structural   CsRbSrSnCl6
_chemical_formula_sum   'Cs1 Rb1 Sr1 Sn1 Cl6'
_cell_volume   540.73387322
_cell_formula_units_Z   1
loop_
 _symmetry_equiv_pos_site_id
 _symmetry_equiv_pos_as_xyz
  1  'x, y, z'
loop_
 _atom_site_type_symbol
 _atom_site_label
 _atom_site_symmetry_multiplicity
 _atom_site_fract_x
 _atom_site_fract_y
 _atom_site_fract_z
 _atom_site_occupancy
  Sr  Sr0  1  0.25000000  0.25000000  0.25000000  1
  Sn  Sn1  1  0.75000000  0.75000000  0.75000000  1
  Rb  Rb2  1  0.00000000  0.00000000  0.00000000  1
  Cs  Cs3  1  0.50000000  0.50000000  0.50000000  1
  Cl  Cl4  1  0.75000000  0.75000000  0.25000000  1
  Cl  Cl5  1  0.25000000  0.25000000  0.75000000  1
  Cl  Cl6  1  0.75000000  0.25000000  0.75000000  1
  Cl  Cl7  1  0.25000000  0.75000000  0.25000000  1
  Cl  Cl8  1  0.25000000  0.75000000  0.75000000  1
  Cl  Cl9  1  0.75000000  0.25000000  0.25000000  1
