# generated using pymatgen
data_BaTiHg2F6
_symmetry_space_group_name_H-M   'P 1'
_cell_length_a   6.33357985
_cell_length_b   6.33357964
_cell_length_c   6.33358000
_cell_angle_alpha   59.99999814
_cell_angle_beta   59.99999920
_cell_angle_gamma   59.99999841
_symmetry_Int_Tables_number   1
_chemical_formula_structural   BaTiHg2F6
_chemical_formula_sum   'Ba1 Ti1 Hg2 F6'
_cell_volume   179.65228067
_cell_formula_units_Z   1
loop_
 _symmetry_equiv_pos_site_id
 _symmetry_equiv_pos_as_xyz
  1  'x, y, z'
loop_
 _atom_site_type_symbol
 _atom_site_label
 _atom_site_symmetry_multiplicity
 _atom_site_fract_x
 _atom_site_fract_y
 _atom_site_fract_z
 _atom_site_occupancy
  Ti  Ti0  1  0.25000000  0.25000000  0.25000000  1
  Ba  Ba1  1  0.75000000  0.75000000  0.75000000  1
  Hg  Hg2  1  0.00000000  0.00000000  0.00000000  1
  Hg  Hg3  1  0.50000000  0.50000000  0.50000000  1
  F  F4  1  0.75000000  0.75000000  0.25000000  1
  F  F5  1  0.25000000  0.25000000  0.75000000  1
  F  F6  1  0.75000000  0.25000000  0.75000000  1
  F  F7  1  0.25000000  0.75000000  0.25000000  1
  F  F8  1  0.25000000  0.75000000  0.75000000  1
  F  F9  1  0.75000000  0.25000000  0.25000000  1
