# generated using pymatgen
data_TiTl2CrF6
_symmetry_space_group_name_H-M   'P 1'
_cell_length_a   7.44308055
_cell_length_b   7.44308048
_cell_length_c   7.44308000
_cell_angle_alpha   60.00000213
_cell_angle_beta   60.00000245
_cell_angle_gamma   60.00000387
_symmetry_Int_Tables_number   1
_chemical_formula_structural   TiTl2CrF6
_chemical_formula_sum   'Ti1 Tl2 Cr1 F6'
_cell_volume   291.57021077
_cell_formula_units_Z   1
loop_
 _symmetry_equiv_pos_site_id
 _symmetry_equiv_pos_as_xyz
  1  'x, y, z'
loop_
 _atom_site_type_symbol
 _atom_site_label
 _atom_site_symmetry_multiplicity
 _atom_site_fract_x
 _atom_site_fract_y
 _atom_site_fract_z
 _atom_site_occupancy
  Ti  Ti0  1  0.25000000  0.25000000  0.25000000  1
  Cr  Cr1  1  0.75000000  0.75000000  0.75000000  1
  Tl  Tl2  1  0.00000000  0.00000000  0.00000000  1
  Tl  Tl3  1  0.50000000  0.50000000  0.50000000  1
  F  F4  1  0.75000000  0.75000000  0.25000000  1
  F  F5  1  0.25000000  0.25000000  0.75000000  1
  F  F6  1  0.75000000  0.25000000  0.75000000  1
  F  F7  1  0.25000000  0.75000000  0.25000000  1
  F  F8  1  0.25000000  0.75000000  0.75000000  1
  F  F9  1  0.75000000  0.25000000  0.25000000  1
