# generated using pymatgen
data_RbTiPtAuCl6
_symmetry_space_group_name_H-M   'P 1'
_cell_length_a   6.98889868
_cell_length_b   6.98889853
_cell_length_c   6.98889900
_cell_angle_alpha   60.00000253
_cell_angle_beta   60.00000323
_cell_angle_gamma   60.00000418
_symmetry_Int_Tables_number   1
_chemical_formula_structural   RbTiPtAuCl6
_chemical_formula_sum   'Rb1 Ti1 Pt1 Au1 Cl6'
_cell_volume   241.38555584
_cell_formula_units_Z   1
loop_
 _symmetry_equiv_pos_site_id
 _symmetry_equiv_pos_as_xyz
  1  'x, y, z'
loop_
 _atom_site_type_symbol
 _atom_site_label
 _atom_site_symmetry_multiplicity
 _atom_site_fract_x
 _atom_site_fract_y
 _atom_site_fract_z
 _atom_site_occupancy
  Ti  Ti0  1  0.25000000  0.25000000  0.25000000  1
  Rb  Rb1  1  0.75000000  0.75000000  0.75000000  1
  Pt  Pt2  1  0.00000000  0.00000000  0.00000000  1
  Au  Au3  1  0.50000000  0.50000000  0.50000000  1
  Cl  Cl4  1  0.75000000  0.75000000  0.25000000  1
  Cl  Cl5  1  0.25000000  0.25000000  0.75000000  1
  Cl  Cl6  1  0.75000000  0.25000000  0.75000000  1
  Cl  Cl7  1  0.25000000  0.75000000  0.25000000  1
  Cl  Cl8  1  0.25000000  0.75000000  0.75000000  1
  Cl  Cl9  1  0.75000000  0.25000000  0.25000000  1
