# generated using pymatgen
data_TiTlCuPtBr6
_symmetry_space_group_name_H-M   'P 1'
_cell_length_a   7.19326952
_cell_length_b   7.19326965
_cell_length_c   7.19326900
_cell_angle_alpha   59.99999840
_cell_angle_beta   59.99999778
_cell_angle_gamma   59.99999914
_symmetry_Int_Tables_number   1
_chemical_formula_structural   TiTlCuPtBr6
_chemical_formula_sum   'Ti1 Tl1 Cu1 Pt1 Br6'
_cell_volume   263.18671415
_cell_formula_units_Z   1
loop_
 _symmetry_equiv_pos_site_id
 _symmetry_equiv_pos_as_xyz
  1  'x, y, z'
loop_
 _atom_site_type_symbol
 _atom_site_label
 _atom_site_symmetry_multiplicity
 _atom_site_fract_x
 _atom_site_fract_y
 _atom_site_fract_z
 _atom_site_occupancy
  Ti  Ti0  1  0.25000000  0.25000000  0.25000000  1
  Tl  Tl1  1  0.75000000  0.75000000  0.75000000  1
  Cu  Cu2  1  0.00000000  0.00000000  0.00000000  1
  Pt  Pt3  1  0.50000000  0.50000000  0.50000000  1
  Br  Br4  1  0.75000000  0.75000000  0.25000000  1
  Br  Br5  1  0.25000000  0.25000000  0.75000000  1
  Br  Br6  1  0.75000000  0.25000000  0.75000000  1
  Br  Br7  1  0.25000000  0.75000000  0.25000000  1
  Br  Br8  1  0.25000000  0.75000000  0.75000000  1
  Br  Br9  1  0.75000000  0.25000000  0.25000000  1
