# generated using pymatgen
data_RbZnCdAgCl6
_symmetry_space_group_name_H-M   'P 1'
_cell_length_a   7.28095835
_cell_length_b   7.28095788
_cell_length_c   7.28095800
_cell_angle_alpha   59.99999945
_cell_angle_beta   60.00000161
_cell_angle_gamma   59.99999630
_symmetry_Int_Tables_number   1
_chemical_formula_structural   RbZnCdAgCl6
_chemical_formula_sum   'Rb1 Zn1 Cd1 Ag1 Cl6'
_cell_volume   272.92956622
_cell_formula_units_Z   1
loop_
 _symmetry_equiv_pos_site_id
 _symmetry_equiv_pos_as_xyz
  1  'x, y, z'
loop_
 _atom_site_type_symbol
 _atom_site_label
 _atom_site_symmetry_multiplicity
 _atom_site_fract_x
 _atom_site_fract_y
 _atom_site_fract_z
 _atom_site_occupancy
  Zn  Zn0  1  0.25000000  0.25000000  0.25000000  1
  Rb  Rb1  1  0.75000000  0.75000000  0.75000000  1
  Ag  Ag2  1  0.00000000  0.00000000  0.00000000  1
  Cd  Cd3  1  0.50000000  0.50000000  0.50000000  1
  Cl  Cl4  1  0.75000000  0.75000000  0.25000000  1
  Cl  Cl5  1  0.25000000  0.25000000  0.75000000  1
  Cl  Cl6  1  0.75000000  0.25000000  0.75000000  1
  Cl  Cl7  1  0.25000000  0.75000000  0.25000000  1
  Cl  Cl8  1  0.25000000  0.75000000  0.75000000  1
  Cl  Cl9  1  0.75000000  0.25000000  0.25000000  1
