# generated using pymatgen
data_RbTlZnCuCl6
_symmetry_space_group_name_H-M   'P 1'
_cell_length_a   8.29298552
_cell_length_b   8.29298546
_cell_length_c   8.29298500
_cell_angle_alpha   59.99999785
_cell_angle_beta   59.99999810
_cell_angle_gamma   59.99999617
_symmetry_Int_Tables_number   1
_chemical_formula_structural   RbTlZnCuCl6
_chemical_formula_sum   'Rb1 Tl1 Zn1 Cu1 Cl6'
_cell_volume   403.29019877
_cell_formula_units_Z   1
loop_
 _symmetry_equiv_pos_site_id
 _symmetry_equiv_pos_as_xyz
  1  'x, y, z'
loop_
 _atom_site_type_symbol
 _atom_site_label
 _atom_site_symmetry_multiplicity
 _atom_site_fract_x
 _atom_site_fract_y
 _atom_site_fract_z
 _atom_site_occupancy
  Zn  Zn0  1  0.25000000  0.25000000  0.25000000  1
  Rb  Rb1  1  0.75000000  0.75000000  0.75000000  1
  Cu  Cu2  1  0.00000000  0.00000000  0.00000000  1
  Tl  Tl3  1  0.50000000  0.50000000  0.50000000  1
  Cl  Cl4  1  0.75000000  0.75000000  0.25000000  1
  Cl  Cl5  1  0.25000000  0.25000000  0.75000000  1
  Cl  Cl6  1  0.75000000  0.25000000  0.75000000  1
  Cl  Cl7  1  0.25000000  0.75000000  0.25000000  1
  Cl  Cl8  1  0.25000000  0.75000000  0.75000000  1
  Cl  Cl9  1  0.75000000  0.25000000  0.25000000  1
