# generated using pymatgen
data_TlZnHgPbCl6
_symmetry_space_group_name_H-M   'P 1'
_cell_length_a   8.05826234
_cell_length_b   8.05826255
_cell_length_c   8.05826200
_cell_angle_alpha   60.00000226
_cell_angle_beta   60.00000141
_cell_angle_gamma   60.00000179
_symmetry_Int_Tables_number   1
_chemical_formula_structural   TlZnHgPbCl6
_chemical_formula_sum   'Tl1 Zn1 Hg1 Pb1 Cl6'
_cell_volume   370.00638558
_cell_formula_units_Z   1
loop_
 _symmetry_equiv_pos_site_id
 _symmetry_equiv_pos_as_xyz
  1  'x, y, z'
loop_
 _atom_site_type_symbol
 _atom_site_label
 _atom_site_symmetry_multiplicity
 _atom_site_fract_x
 _atom_site_fract_y
 _atom_site_fract_z
 _atom_site_occupancy
  Zn  Zn0  1  0.25000000  0.25000000  0.25000000  1
  Tl  Tl1  1  0.75000000  0.75000000  0.75000000  1
  Hg  Hg2  1  0.00000000  0.00000000  0.00000000  1
  Pb  Pb3  1  0.50000000  0.50000000  0.50000000  1
  Cl  Cl4  1  0.75000000  0.75000000  0.25000000  1
  Cl  Cl5  1  0.25000000  0.25000000  0.75000000  1
  Cl  Cl6  1  0.75000000  0.25000000  0.75000000  1
  Cl  Cl7  1  0.25000000  0.75000000  0.25000000  1
  Cl  Cl8  1  0.25000000  0.75000000  0.75000000  1
  Cl  Cl9  1  0.75000000  0.25000000  0.25000000  1
