# generated using pymatgen
data_Cs2RbRhCl6
_symmetry_space_group_name_H-M   'P 1'
_cell_length_a   7.76719541
_cell_length_b   7.76719541
_cell_length_c   7.76719541
_cell_angle_alpha   60.00000000
_cell_angle_beta   60.00000000
_cell_angle_gamma   60.00000000
_symmetry_Int_Tables_number   1
_chemical_formula_structural   Cs2RbRhCl6
_chemical_formula_sum   'Cs2 Rb1 Rh1 Cl6'
_cell_volume   331.34292055
_cell_formula_units_Z   1
loop_
 _symmetry_equiv_pos_site_id
 _symmetry_equiv_pos_as_xyz
  1  'x, y, z'
loop_
 _atom_site_type_symbol
 _atom_site_label
 _atom_site_symmetry_multiplicity
 _atom_site_fract_x
 _atom_site_fract_y
 _atom_site_fract_z
 _atom_site_occupancy
  Cl  Cl0  1  0.71514049  0.71514049  0.28485951  1
  Cl  Cl1  1  0.28485951  0.28485951  0.71514049  1
  Cl  Cl2  1  0.71514049  0.28485951  0.71514049  1
  Cl  Cl3  1  0.28485951  0.71514049  0.28485951  1
  Cl  Cl4  1  0.28485951  0.71514049  0.71514049  1
  Cl  Cl5  1  0.71514049  0.28485951  0.28485951  1
  Cs  Cs6  1  0.75000000  0.75000000  0.75000000  1
  Cs  Cs7  1  0.25000000  0.25000000  0.25000000  1
  Rb  Rb8  1  -0.00000000  0.00000000  -0.00000000  1
  Rh  Rh9  1  0.50000000  0.50000000  0.50000000  1
