# generated using pymatgen
data_CsBaLiTiF6
_symmetry_space_group_name_H-M   'P 1'
_cell_length_a   5.99180591
_cell_length_b   5.99180591
_cell_length_c   5.99180591
_cell_angle_alpha   60.00000000
_cell_angle_beta   60.00000000
_cell_angle_gamma   60.00000000
_symmetry_Int_Tables_number   1
_chemical_formula_structural   CsBaLiTiF6
_chemical_formula_sum   'Cs1 Ba1 Li1 Ti1 F6'
_cell_volume   152.11015688
_cell_formula_units_Z   1
loop_
 _symmetry_equiv_pos_site_id
 _symmetry_equiv_pos_as_xyz
  1  'x, y, z'
loop_
 _atom_site_type_symbol
 _atom_site_label
 _atom_site_symmetry_multiplicity
 _atom_site_fract_x
 _atom_site_fract_y
 _atom_site_fract_z
 _atom_site_occupancy
  Cs  Cs0  1  0.75000000  0.75000000  0.75000000  1
  Ba  Ba1  1  0.25000000  0.25000000  0.25000000  1
  Li  Li2  1  -0.00000000  0.00000000  -0.00000000  1
  Ti  Ti3  1  0.50000000  0.50000000  0.50000000  1
  F  F4  1  0.75095095  0.75095095  0.24904905  1
  F  F5  1  0.24904905  0.24904905  0.75095095  1
  F  F6  1  0.75095095  0.24904905  0.75095095  1
  F  F7  1  0.24904905  0.75095095  0.24904905  1
  F  F8  1  0.24904905  0.75095095  0.75095095  1
  F  F9  1  0.75095095  0.24904905  0.24904905  1
