# generated using pymatgen
data_KBaNaFeF6
_symmetry_space_group_name_H-M   'P 1'
_cell_length_a   6.01182184
_cell_length_b   6.01182184
_cell_length_c   6.01182184
_cell_angle_alpha   60.00000000
_cell_angle_beta   60.00000000
_cell_angle_gamma   60.00000000
_symmetry_Int_Tables_number   1
_chemical_formula_structural   KBaNaFeF6
_chemical_formula_sum   'K1 Ba1 Na1 Fe1 F6'
_cell_volume   153.63964975
_cell_formula_units_Z   1
loop_
 _symmetry_equiv_pos_site_id
 _symmetry_equiv_pos_as_xyz
  1  'x, y, z'
loop_
 _atom_site_type_symbol
 _atom_site_label
 _atom_site_symmetry_multiplicity
 _atom_site_fract_x
 _atom_site_fract_y
 _atom_site_fract_z
 _atom_site_occupancy
  K  K0  1  0.25000000  0.25000000  0.25000000  1
  Ba  Ba1  1  0.75000000  0.75000000  0.75000000  1
  Na  Na2  1  -0.00000000  -0.00000000  -0.00000000  1
  Fe  Fe3  1  0.50000000  0.50000000  0.50000000  1
  F  F4  1  0.74200615  0.74200615  0.25799385  1
  F  F5  1  0.25799385  0.25799385  0.74200615  1
  F  F6  1  0.74200615  0.25799385  0.74200615  1
  F  F7  1  0.25799385  0.74200615  0.25799385  1
  F  F8  1  0.25799385  0.74200615  0.74200615  1
  F  F9  1  0.74200615  0.25799385  0.25799385  1
