# generated using pymatgen
data_KRbMoAuCl6
_symmetry_space_group_name_H-M   'P 1'
_cell_length_a   7.32021332
_cell_length_b   7.32021332
_cell_length_c   7.32021332
_cell_angle_alpha   60.00000000
_cell_angle_beta   60.00000000
_cell_angle_gamma   60.00000000
_symmetry_Int_Tables_number   1
_chemical_formula_structural   KRbMoAuCl6
_chemical_formula_sum   'K1 Rb1 Mo1 Au1 Cl6'
_cell_volume   277.36791003
_cell_formula_units_Z   1
loop_
 _symmetry_equiv_pos_site_id
 _symmetry_equiv_pos_as_xyz
  1  'x, y, z'
loop_
 _atom_site_type_symbol
 _atom_site_label
 _atom_site_symmetry_multiplicity
 _atom_site_fract_x
 _atom_site_fract_y
 _atom_site_fract_z
 _atom_site_occupancy
  K  K0  1  0.75000000  0.75000000  0.75000000  1
  Rb  Rb1  1  0.25000000  0.25000000  0.25000000  1
  Mo  Mo2  1  0.00000000  0.00000000  0.00000000  1
  Au  Au3  1  0.50000000  0.50000000  0.50000000  1
  Cl  Cl4  1  0.76177610  0.76177610  0.23822390  1
  Cl  Cl5  1  0.23822390  0.23822390  0.76177610  1
  Cl  Cl6  1  0.76177610  0.23822390  0.76177610  1
  Cl  Cl7  1  0.23822390  0.76177610  0.23822390  1
  Cl  Cl8  1  0.23822390  0.76177610  0.76177610  1
  Cl  Cl9  1  0.76177610  0.23822390  0.23822390  1
