# generated using pymatgen
data_AgGeCl3
_symmetry_space_group_name_H-M   'P 1'
_cell_length_a   14.62429760
_cell_length_b   14.62429760
_cell_length_c   20.68187900
_cell_angle_alpha   90.00000000
_cell_angle_beta   90.00000000
_cell_angle_gamma   90.00000000
_symmetry_Int_Tables_number   1
_chemical_formula_structural   AgGeCl3
_chemical_formula_sum   'Ag32 Ge32 Cl96'
_cell_volume   4423.23511974
_cell_formula_units_Z   32
loop_
 _symmetry_equiv_pos_site_id
 _symmetry_equiv_pos_as_xyz
  1  'x, y, z'
loop_
 _atom_site_type_symbol
 _atom_site_label
 _atom_site_symmetry_multiplicity
 _atom_site_fract_x
 _atom_site_fract_y
 _atom_site_fract_z
 _atom_site_occupancy
  Ag  Ag0  1  0.98444189  0.97402911  0.98951837  1
  Ag  Ag1  1  0.96976908  0.99279434  0.23876227  1
  Ag  Ag2  1  0.97899396  0.08087303  0.51475181  1
  Ag  Ag3  1  0.98876712  0.00218503  0.74407422  1
  Ag  Ag4  1  0.48835809  0.03307497  0.96804414  1
  Ag  Ag5  1  0.48542290  0.97524683  0.21810196  1
  Ag  Ag6  1  0.49918932  0.07356251  0.52357425  1
  Ag  Ag7  1  0.50457920  0.96099749  0.75663864  1
  Ag  Ag8  1  0.25033079  0.27473892  0.99110637  1
  Ag  Ag9  1  0.25033368  0.12101431  0.29415165  1
  Ag  Ag10  1  0.26943302  0.29042982  0.54838246  1
  Ag  Ag11  1  0.23089106  0.26932683  0.74015037  1
  Ag  Ag12  1  0.96936659  0.47393342  0.01507661  1
  Ag  Ag13  1  0.05393903  0.53760366  0.26697909  1
  Ag  Ag14  1  0.99932206  0.59110816  0.48697777  1
  Ag  Ag15  1  0.98842399  0.47667893  0.74346277  1
  Ag  Ag16  1  0.75103286  0.28010886  0.97122544  1
  Ag  Ag17  1  0.75926603  0.22315521  0.25263302  1
  Ag  Ag18  1  0.63034646  0.28750702  0.44629088  1
  Ag  Ag19  1  0.76347157  0.26229926  0.75160946  1
  Ag  Ag20  1  0.49021489  0.41521047  0.02836729  1
  Ag  Ag21  1  0.33960284  0.46049589  0.30729638  1
  Ag  Ag22  1  0.50085067  0.55180281  0.54185582  1
  Ag  Ag23  1  0.49945119  0.56173492  0.73386188  1
  Ag  Ag24  1  0.25162786  0.78801993  0.98704541  1
  Ag  Ag25  1  0.25825560  0.73807939  0.23382735  1
  Ag  Ag26  1  0.27140576  0.82544772  0.50349245  1
  Ag  Ag27  1  0.24289146  0.79987789  0.72045858  1
  Ag  Ag28  1  0.74205035  0.61964729  0.07496642  1
  Ag  Ag29  1  0.56810503  0.78526023  0.19436264  1
  Ag  Ag30  1  0.74457180  0.75475273  0.35408691  1
  Ag  Ag31  1  0.77336124  0.77433586  0.95630141  1
  Ge  Ge32  1  0.95575741  0.19810485  0.11497511  1
  Ge  Ge33  1  0.01419373  0.21406809  0.37006765  1
  Ge  Ge34  1  0.97200422  0.27215967  0.63893140  1
  Ge  Ge35  1  0.02339349  0.26348418  0.88599063  1
  Ge  Ge36  1  0.47796196  0.19171653  0.12347318  1
  Ge  Ge37  1  0.52669425  0.28838623  0.34375192  1
  Ge  Ge38  1  0.52775164  0.30722559  0.61886630  1
  Ge  Ge39  1  0.51934252  0.26091116  0.87106204  1
  Ge  Ge40  1  0.23746849  0.43566759  0.10970713  1
  Ge  Ge41  1  0.24657492  0.47160837  0.41020326  1
  Ge  Ge42  1  0.18970601  0.55603973  0.63719005  1
  Ge  Ge43  1  0.28478908  0.49084248  0.85844983  1
  Ge  Ge44  1  0.99767938  0.70781138  0.12702907  1
  Ge  Ge45  1  0.00300543  0.76992613  0.37550729  1
  Ge  Ge46  1  0.00354759  0.79415237  0.62952349  1
  Ge  Ge47  1  0.02488687  0.73892876  0.88780792  1
  Ge  Ge48  1  0.74709094  0.44839806  0.12747059  1
  Ge  Ge49  1  0.81693801  0.46261884  0.36680063  1
  Ge  Ge50  1  0.76221789  0.60073754  0.63146092  1
  Ge  Ge51  1  0.75842880  0.50486784  0.86124312  1
  Ge  Ge52  1  0.46598976  0.69868249  0.11734477  1
  Ge  Ge53  1  0.50026423  0.69789905  0.37805552  1
  Ge  Ge54  1  0.48793224  0.78594458  0.63592029  1
  Ge  Ge55  1  0.51818072  0.76850479  0.88065621  1
  Ge  Ge56  1  0.22020303  0.97168437  0.12866128  1
  Ge  Ge57  1  0.30854315  0.99706436  0.36995798  1
  Ge  Ge58  1  0.23196494  0.05329098  0.63711843  1
  Ge  Ge59  1  0.26323335  0.98861155  0.86535267  1
  Ge  Ge60  1  0.74050299  0.94633309  0.12050832  1
  Ge  Ge61  1  0.73958461  0.00331200  0.39480796  1
  Ge  Ge62  1  0.72168830  0.02449874  0.63213714  1
  Ge  Ge63  1  0.77368821  0.98920569  0.86759960  1
  Cl  Cl64  1  0.91069387  0.20876338  0.00548854  1
  Cl  Cl65  1  0.11846723  0.22981941  0.28285758  1
  Cl  Cl66  1  0.90773279  0.24267141  0.53733681  1
  Cl  Cl67  1  0.06751673  0.31439022  0.77776273  1
  Cl  Cl68  1  0.41090490  0.18901538  0.01472142  1
  Cl  Cl69  1  0.57895418  0.18568987  0.26328304  1
  Cl  Cl70  1  0.43694765  0.25232791  0.52525130  1
  Cl  Cl71  1  0.59597886  0.29341066  0.77093345  1
  Cl  Cl72  1  0.32515793  0.43630201  0.96683848  1
  Cl  Cl73  1  0.20510921  0.44768479  0.22547878  1
  Cl  Cl74  1  0.30298446  0.53158887  0.50338448  1
  Cl  Cl75  1  0.14652394  0.56679312  0.74853897  1
  Cl  Cl76  1  0.93946034  0.73160082  0.98959705  1
  Cl  Cl77  1  0.08779796  0.70155983  0.23615881  1
  Cl  Cl78  1  0.95234463  0.76571060  0.48538177  1
  Cl  Cl79  1  0.05797255  0.81960035  0.73938937  1
  Cl  Cl80  1  0.80446950  0.51586073  0.97782205  1
  Cl  Cl81  1  0.72567558  0.39858799  0.23264517  1
  Cl  Cl82  1  0.86872270  0.47653653  0.47415517  1
  Cl  Cl83  1  0.67213151  0.55044221  0.72490772  1
  Cl  Cl84  1  0.42368060  0.74898670  0.01697791  1
  Cl  Cl85  1  0.60891321  0.67253530  0.28882874  1
  Cl  Cl86  1  0.43042562  0.76395422  0.52593432  1
  Cl  Cl87  1  0.57419461  0.79375553  0.77408575  1
  Cl  Cl88  1  0.31052131  0.96381480  0.97620070  1
  Cl  Cl89  1  0.14494575  0.97055142  0.23275336  1
  Cl  Cl90  1  0.33734693  0.01560825  0.48093086  1
  Cl  Cl91  1  0.15541900  0.07568611  0.73808073  1
  Cl  Cl92  1  0.81074352  0.96298946  0.98666191  1
  Cl  Cl93  1  0.66383122  0.92253745  0.23113809  1
  Cl  Cl94  1  0.81481368  0.00587923  0.49440358  1
  Cl  Cl95  1  0.66111915  0.03942809  0.74162594  1
  Cl  Cl96  1  0.04410784  0.05843754  0.08699814  1
  Cl  Cl97  1  0.07808328  0.07503157  0.41063281  1
  Cl  Cl98  1  0.14338444  0.15993333  0.57497319  1
  Cl  Cl99  1  0.16769121  0.18556405  0.90373816  1
  Cl  Cl100  1  0.53964359  0.03800675  0.10026578  1
  Cl  Cl101  1  0.61233790  0.10346923  0.42804931  1
  Cl  Cl102  1  0.66816979  0.16774110  0.59917610  1
  Cl  Cl103  1  0.63637181  0.16321874  0.91744654  1
  Cl  Cl104  1  0.38945163  0.37221058  0.12839481  1
  Cl  Cl105  1  0.49708297  0.41049145  0.27469506  1
  Cl  Cl106  1  0.44181145  0.45037627  0.63512749  1
  Cl  Cl107  1  0.35057113  0.36194347  0.80488110  1
  Cl  Cl108  1  0.07168926  0.57049911  0.09173623  1
  Cl  Cl109  1  0.12745626  0.57927246  0.39963984  1
  Cl  Cl110  1  0.02958246  0.56757996  0.60948385  1
  Cl  Cl111  1  0.15802153  0.66486452  0.92973839  1
  Cl  Cl112  1  0.89573789  0.38860415  0.12042655  1
  Cl  Cl113  1  0.95758476  0.41615044  0.31570292  1
  Cl  Cl114  1  0.86531398  0.39068390  0.67310448  1
  Cl  Cl115  1  0.82312254  0.34778703  0.86075127  1
  Cl  Cl116  1  0.55102658  0.57284870  0.08129573  1
  Cl  Cl117  1  0.53199548  0.55136410  0.41857475  1
  Cl  Cl118  1  0.63418402  0.66354241  0.57497664  1
  Cl  Cl119  1  0.64548931  0.67289609  0.91321067  1
  Cl  Cl120  1  0.34305199  0.87325178  0.17886094  1
  Cl  Cl121  1  0.44900370  0.93684413  0.34156655  1
  Cl  Cl122  1  0.38321355  0.91059215  0.66819287  1
  Cl  Cl123  1  0.30837363  0.83656202  0.83406602  1
  Cl  Cl124  1  0.88255856  0.88967609  0.15793965  1
  Cl  Cl125  1  0.90933462  0.89261014  0.34335160  1
  Cl  Cl126  1  0.98525667  0.95822271  0.61734081  1
  Cl  Cl127  1  0.82612937  0.84507443  0.83728125  1
  Cl  Cl128  1  0.80804328  0.13202218  0.14564657  1
  Cl  Cl129  1  0.90481655  0.13201994  0.29995036  1
  Cl  Cl130  1  0.87888195  0.15805885  0.69557276  1
  Cl  Cl131  1  0.92330580  0.06017820  0.85028414  1
  Cl  Cl132  1  0.35452773  0.12303613  0.18476232  1
  Cl  Cl133  1  0.37653745  0.24099555  0.35269908  1
  Cl  Cl134  1  0.33966666  0.16681766  0.67002335  1
  Cl  Cl135  1  0.41067432  0.05789992  0.83831017  1
  Cl  Cl136  1  0.16416691  0.29000221  0.09958563  1
  Cl  Cl137  1  0.16136442  0.35461019  0.45430685  1
  Cl  Cl138  1  0.18797470  0.39091036  0.63801111  1
  Cl  Cl139  1  0.07655443  0.40363880  0.93285757  1
  Cl  Cl140  1  0.86699759  0.63150898  0.17008068  1
  Cl  Cl141  1  0.88573739  0.66182558  0.34239496  1
  Cl  Cl142  1  0.80983701  0.74135758  0.67142937  1
  Cl  Cl143  1  0.89542570  0.57442970  0.82581845  1
  Cl  Cl144  1  0.66686987  0.32420095  0.07850969  1
  Cl  Cl145  1  0.78293523  0.30083085  0.38280241  1
  Cl  Cl146  1  0.62983769  0.38605667  0.54739161  1
  Cl  Cl147  1  0.57838421  0.39624549  0.92226035  1
  Cl  Cl148  1  0.33319147  0.62357619  0.13990757  1
  Cl  Cl149  1  0.36653879  0.65171773  0.31691397  1
  Cl  Cl150  1  0.37709397  0.67558726  0.68076496  1
  Cl  Cl151  1  0.42247460  0.57660887  0.84622590  1
  Cl  Cl152  1  0.15087966  0.83592828  0.08879169  1
  Cl  Cl153  1  0.23126057  0.85867653  0.38515961  1
  Cl  Cl154  1  0.17079191  0.78978070  0.59842606  1
  Cl  Cl155  1  0.08573408  0.88894786  0.91185415  1
  Cl  Cl156  1  0.68882313  0.78966170  0.08233706  1
  Cl  Cl157  1  0.65917589  0.86578733  0.42134712  1
  Cl  Cl158  1  0.58641115  0.95153161  0.58782753  1
  Cl  Cl159  1  0.59140501  0.90542321  0.92362206  1
