# generated using pymatgen
data_MgAgF3
_symmetry_space_group_name_H-M   'P 1'
_cell_length_a   11.24683034
_cell_length_b   11.24683034
_cell_length_c   15.90541900
_cell_angle_alpha   90.00000000
_cell_angle_beta   90.00000000
_cell_angle_gamma   90.00000000
_symmetry_Int_Tables_number   1
_chemical_formula_structural   MgAgF3
_chemical_formula_sum   'Mg32 Ag32 F96'
_cell_volume   2011.89541952
_cell_formula_units_Z   32
loop_
 _symmetry_equiv_pos_site_id
 _symmetry_equiv_pos_as_xyz
  1  'x, y, z'
loop_
 _atom_site_type_symbol
 _atom_site_label
 _atom_site_symmetry_multiplicity
 _atom_site_fract_x
 _atom_site_fract_y
 _atom_site_fract_z
 _atom_site_occupancy
  Ag  Ag0  1  0.00432495  -0.00610293  -0.00361244  1
  Ag  Ag1  1  0.00109139  -0.00337688  0.24392976  1
  Ag  Ag2  1  0.00499227  -0.00630241  0.49977856  1
  Ag  Ag3  1  -0.00066694  -0.00144451  0.74950402  1
  Ag  Ag4  1  0.49575604  0.00192104  0.00506622  1
  Ag  Ag5  1  0.49302331  0.00517964  0.25263992  1
  Ag  Ag6  1  0.49784936  0.00032418  0.49946563  1
  Ag  Ag7  1  0.49296982  0.00551270  0.74944653  1
  Ag  Ag8  1  0.24394469  0.25430037  0.00164978  1
  Ag  Ag9  1  0.24532059  0.25306962  0.25506887  1
  Ag  Ag10  1  0.24797075  0.25051150  0.50071288  1
  Ag  Ag11  1  0.24290395  0.25527984  0.74986201  1
  Ag  Ag12  1  -0.00421061  0.50194528  0.00514637  1
  Ag  Ag13  1  -0.00694963  0.50530708  0.25257772  1
  Ag  Ag14  1  -0.00209639  0.50033544  0.49956565  1
  Ag  Ag15  1  -0.00713341  0.50538972  0.74946390  1
  Ag  Ag16  1  0.75186947  0.24614942  -0.00605995  1
  Ag  Ag17  1  0.75345916  0.24476140  0.24731670  1
  Ag  Ag18  1  0.75472699  0.24367358  0.49928388  1
  Ag  Ag19  1  0.74946458  0.24867928  0.74854359  1
  Ag  Ag20  1  0.50432180  0.49392371  -0.00367717  1
  Ag  Ag21  1  0.50138904  0.49677093  0.24384369  1
  Ag  Ag22  1  0.50496500  0.49362560  0.49980973  1
  Ag  Ag23  1  0.49912722  0.49840303  0.74946242  1
  Ag  Ag24  1  0.25177735  0.74612483  -0.00609778  1
  Ag  Ag25  1  0.25346495  0.74485111  0.24735136  1
  Ag  Ag26  1  0.25476799  0.74370692  0.49929367  1
  Ag  Ag27  1  0.24940038  0.74879363  0.74850241  1
  Ag  Ag28  1  0.74406073  0.75427767  0.00164707  1
  Ag  Ag29  1  0.74522335  0.75287661  0.25508173  1
  Ag  Ag30  1  0.74816079  0.75028561  0.50076167  1
  Ag  Ag31  1  0.74292087  0.75523329  0.74977228  1
  F  F32  1  0.00656541  0.27942372  -0.00062486  1
  F  F33  1  -0.00870404  0.21952676  0.24971136  1
  F  F34  1  0.00314990  0.28221282  0.49966848  1
  F  F35  1  -0.00564062  0.21665753  0.74940446  1
  F  F36  1  0.52960346  0.25623672  -0.00040226  1
  F  F37  1  0.46769336  0.24326925  0.24937163  1
  F  F38  1  0.52926317  0.26040564  0.49940906  1
  F  F39  1  0.46837737  0.23905492  0.74956610  1
  F  F40  1  0.21856853  0.49180402  -0.00068182  1
  F  F41  1  0.27861723  0.50747974  0.24966453  1
  F  F42  1  0.21599571  0.49496526  0.49963964  1
  F  F43  1  0.28113590  0.50434505  0.74935723  1
  F  F44  1  0.02970442  0.75638508  -0.00034423  1
  F  F45  1  0.96769766  0.74321209  0.24943914  1
  F  F46  1  0.02920577  0.76051529  0.49948593  1
  F  F47  1  -0.03161695  0.73904407  0.74958410  1
  F  F48  1  0.74236573  0.46836687  -0.00041101  1
  F  F49  1  0.75519988  0.53048552  0.24940261  1
  F  F50  1  0.73850365  0.46926574  0.49949895  1
  F  F51  1  0.75981225  0.53010413  0.74959759  1
  F  F52  1  0.50654328  0.77946323  -0.00066786  1
  F  F53  1  0.49124530  0.71949285  0.24974788  1
  F  F54  1  0.50307415  0.78218070  0.49969838  1
  F  F55  1  0.49429611  0.71658743  0.74941701  1
  F  F56  1  0.24231199  0.96835591  -0.00034563  1
  F  F57  1  0.25518968  0.03053513  0.24938253  1
  F  F58  1  0.23852072  -0.03074411  0.49943853  1
  F  F59  1  0.25972476  0.03023225  0.74956915  1
  F  F60  1  0.71851733  -0.00824398  -0.00065929  1
  F  F61  1  0.77847159  0.00737274  0.24967027  1
  F  F62  1  0.71595413  -0.00495393  0.49968502  1
  F  F63  1  0.78123205  0.00437952  0.74943101  1
  F  F64  1  0.10623105  0.10712982  0.11266410  1
  F  F65  1  0.13783350  0.14083153  0.38688486  1
  F  F66  1  0.13519231  0.13604083  0.61179797  1
  F  F67  1  0.13970752  0.13832062  0.88656270  1
  F  F68  1  0.60619232  0.10724972  0.13617068  1
  F  F69  1  0.63784732  0.14091184  0.36254184  1
  F  F70  1  0.63533732  0.13620558  0.63705741  1
  F  F71  1  0.63921744  0.13812487  0.86212122  1
  F  F72  1  0.39049471  0.39158660  0.11253321  1
  F  F73  1  0.35761265  0.36071999  0.38679236  1
  F  F74  1  0.36231578  0.36315685  0.61191055  1
  F  F75  1  0.35984073  0.35878963  0.88638851  1
  F  F76  1  0.10630613  0.60724496  0.13617545  1
  F  F77  1  0.13795568  0.64107069  0.36268041  1
  F  F78  1  0.13528857  0.63619742  0.63700513  1
  F  F79  1  0.13925292  0.63818246  0.86210577  1
  F  F80  1  0.89069283  0.39148106  0.13630746  1
  F  F81  1  0.85740780  0.36036167  0.36250181  1
  F  F82  1  0.86229823  0.36307367  0.63726887  1
  F  F83  1  0.86020174  0.35883668  0.86205538  1
  F  F84  1  0.60634554  0.60724640  0.11256246  1
  F  F85  1  0.63772406  0.64072933  0.38701088  1
  F  F86  1  0.63523546  0.63598162  0.61193491  1
  F  F87  1  0.63965276  0.63829854  0.88650771  1
  F  F88  1  0.39064382  0.89140313  0.13634542  1
  F  F89  1  0.35745076  0.86051715  0.36243877  1
  F  F90  1  0.36232138  0.86306209  0.63729537  1
  F  F91  1  0.36022377  0.85889606  0.86202580  1
  F  F92  1  0.89039167  0.89154973  0.11267153  1
  F  F93  1  0.85753582  0.86062418  0.38684109  1
  F  F94  1  0.86232090  0.86321395  0.61209237  1
  F  F95  1  0.85988468  0.85875362  0.88645630  1
  F  F96  1  0.85469157  0.14322242  0.10850801  1
  F  F97  1  0.88512256  0.11316625  0.39626344  1
  F  F98  1  0.88297275  0.11524035  0.60304534  1
  F  F99  1  0.88708170  0.11112686  0.89482544  1
  F  F100  1  0.35904866  0.13890045  0.10434404  1
  F  F101  1  0.38818297  0.11021480  0.39081962  1
  F  F102  1  0.38638498  0.11204428  0.60624711  1
  F  F103  1  0.39194150  0.10635507  0.89203356  1
  F  F104  1  0.14234394  0.35564555  0.14062867  1
  F  F105  1  0.10980715  0.38857128  0.35444518  1
  F  F106  1  0.11445463  0.38370191  0.64602484  1
  F  F107  1  0.11268823  0.38551391  0.85278403  1
  F  F108  1  0.85912473  0.63884686  0.10436466  1
  F  F109  1  0.88822196  0.61025453  0.39089830  1
  F  F110  1  0.88632591  0.61208245  0.60616765  1
  F  F111  1  0.89198743  0.60632568  0.89209413  1
  F  F112  1  0.63785622  0.36014645  0.14480052  1
  F  F113  1  0.60514361  0.39332332  0.35735454  1
  F  F114  1  0.61126112  0.38712891  0.64295746  1
  F  F115  1  0.60965136  0.38866019  0.85793569  1
  F  F116  1  0.35470516  0.64327620  0.10845271  1
  F  F117  1  0.38513637  0.61318683  0.39630280  1
  F  F118  1  0.38294439  0.61523193  0.60309507  1
  F  F119  1  0.38706015  0.61112634  0.89478826  1
  F  F120  1  0.13785523  0.86008215  0.14490451  1
  F  F121  1  0.10502025  0.89336015  0.35737269  1
  F  F122  1  0.11132742  0.88719783  0.64293103  1
  F  F123  1  0.10967809  0.88870225  0.85793702  1
  F  F124  1  0.64227204  0.85565097  0.14063218  1
  F  F125  1  0.60985043  0.88840297  0.35446354  1
  F  F126  1  0.61447168  0.88376333  0.64599666  1
  F  F127  1  0.61271396  0.88548290  0.85278423  1
  Mg  Mg128  1  -0.00148579  0.24930947  0.12454616  1
  Mg  Mg129  1  -0.00258623  0.25004165  0.37471590  1
  Mg  Mg130  1  -0.00135118  0.24948732  0.62453203  1
  Mg  Mg131  1  -0.00001493  0.24894968  0.87433364  1
  Mg  Mg132  1  0.49838874  0.24949728  0.12446172  1
  Mg  Mg133  1  0.49833786  0.25137325  0.37440660  1
  Mg  Mg134  1  0.49876724  0.24956531  0.62445799  1
  Mg  Mg135  1  0.49882911  0.24794491  0.87457111  1
  Mg  Mg136  1  0.24844499  0.49941610  0.12449591  1
  Mg  Mg137  1  0.24816836  0.50097305  0.37471254  1
  Mg  Mg138  1  0.24858223  0.49952552  0.62448076  1
  Mg  Mg139  1  0.24899079  0.49832978  0.87431663  1
  Mg  Mg140  1  -0.00156129  0.74948817  0.12452386  1
  Mg  Mg141  1  -0.00161845  0.75139392  0.37449616  1
  Mg  Mg142  1  -0.00124020  0.74957302  0.62452903  1
  Mg  Mg143  1  0.99887832  0.74796213  0.87460996  1
  Mg  Mg144  1  0.74846355  0.49938387  0.12451440  1
  Mg  Mg145  1  0.74710433  0.49991193  0.37444285  1
  Mg  Mg146  1  0.74875130  0.49956795  0.62457085  1
  Mg  Mg147  1  0.75040617  0.49918494  0.87456366  1
  Mg  Mg148  1  0.49852575  0.74935369  0.12450080  1
  Mg  Mg149  1  0.49737401  0.75009209  0.37481048  1
  Mg  Mg150  1  0.49859306  0.74943161  0.62457454  1
  Mg  Mg151  1  0.49997627  0.74894179  0.87428328  1
  Mg  Mg152  1  0.24846476  -0.00062925  0.12456416  1
  Mg  Mg153  1  0.24700815  -0.00001647  0.37438984  1
  Mg  Mg154  1  0.24883865  -0.00039221  0.62454523  1
  Mg  Mg155  1  0.25049474  -0.00075566  0.87457145  1
  Mg  Mg156  1  0.74827409  -0.00056044  0.12450899  1
  Mg  Mg157  1  0.74816508  0.00090024  0.37477403  1
  Mg  Mg158  1  0.74858055  -0.00042522  0.62454476  1
  Mg  Mg159  1  0.74904195  -0.00174338  0.87432613  1
