# generated using pymatgen
data_AgSnCl3
_symmetry_space_group_name_H-M   'P 1'
_cell_length_a   15.40001778
_cell_length_b   15.40001778
_cell_length_c   21.77891400
_cell_angle_alpha   90.00000000
_cell_angle_beta   90.00000000
_cell_angle_gamma   90.00000000
_symmetry_Int_Tables_number   1
_chemical_formula_structural   AgSnCl3
_chemical_formula_sum   'Ag32 Sn32 Cl96'
_cell_volume   5165.09916841
_cell_formula_units_Z   32
loop_
 _symmetry_equiv_pos_site_id
 _symmetry_equiv_pos_as_xyz
  1  'x, y, z'
loop_
 _atom_site_type_symbol
 _atom_site_label
 _atom_site_symmetry_multiplicity
 _atom_site_fract_x
 _atom_site_fract_y
 _atom_site_fract_z
 _atom_site_occupancy
  Ag  Ag0  1  0.04262682  0.08940885  0.96003415  1
  Ag  Ag1  1  0.00223249  0.07095694  0.23815884  1
  Ag  Ag2  1  0.02633326  0.07081375  0.51364398  1
  Ag  Ag3  1  0.90149125  0.84266406  0.88678811  1
  Ag  Ag4  1  0.43337829  0.03035461  0.96741286  1
  Ag  Ag5  1  0.55046650  0.04844779  0.24462656  1
  Ag  Ag6  1  0.62537992  0.04457032  0.48695706  1
  Ag  Ag7  1  0.43685733  0.99183862  0.68700734  1
  Ag  Ag8  1  0.26347983  0.27089579  0.00209910  1
  Ag  Ag9  1  0.19438595  0.11936862  0.14967741  1
  Ag  Ag10  1  0.23909764  0.21354098  0.46540818  1
  Ag  Ag11  1  0.34107035  0.28430095  0.75259843  1
  Ag  Ag12  1  0.86058075  0.50049752  0.98849770  1
  Ag  Ag13  1  0.90303042  0.49922927  0.30089363  1
  Ag  Ag14  1  0.12834774  0.35048953  0.52620818  1
  Ag  Ag15  1  0.96859267  0.49570278  0.71313377  1
  Ag  Ag16  1  0.78074958  0.27830515  0.95814023  1
  Ag  Ag17  1  0.74716096  0.29452714  0.25224071  1
  Ag  Ag18  1  0.77663771  0.10876847  0.57732809  1
  Ag  Ag19  1  0.85855301  0.12346848  0.78858430  1
  Ag  Ag20  1  0.49517349  0.47291720  0.99218042  1
  Ag  Ag21  1  0.45902961  0.53650507  0.27170857  1
  Ag  Ag22  1  0.58249595  0.57419140  0.49299951  1
  Ag  Ag23  1  0.46413075  0.52174353  0.65946316  1
  Ag  Ag24  1  0.28513984  0.70387294  0.99361952  1
  Ag  Ag25  1  0.23007656  0.68734269  0.27594057  1
  Ag  Ag26  1  0.20885547  0.83008026  0.51362690  1
  Ag  Ag27  1  0.29281321  0.77771181  0.70773224  1
  Ag  Ag28  1  0.80186504  0.83565377  0.08499297  1
  Ag  Ag29  1  0.85376505  0.65687208  0.22794536  1
  Ag  Ag30  1  0.81045788  0.86532913  0.50303172  1
  Ag  Ag31  1  0.82991715  0.76297641  0.77246622  1
  Sn  Sn32  1  0.96481888  0.24742809  0.11660506  1
  Sn  Sn33  1  0.96807530  0.23975234  0.37127405  1
  Sn  Sn34  1  0.01804943  0.24974841  0.66789024  1
  Sn  Sn35  1  0.02526512  0.34639909  0.88844851  1
  Sn  Sn36  1  0.49086420  0.24254280  0.11212508  1
  Sn  Sn37  1  0.49960078  0.21610349  0.35162626  1
  Sn  Sn38  1  0.53199045  0.24611033  0.61032778  1
  Sn  Sn39  1  0.54853477  0.25218209  0.87262144  1
  Sn  Sn40  1  0.24711436  0.48586688  0.12757363  1
  Sn  Sn41  1  0.22145589  0.44096511  0.36715253  1
  Sn  Sn42  1  0.24292374  0.55296157  0.62350516  1
  Sn  Sn43  1  0.28496637  0.48437682  0.86422232  1
  Sn  Sn44  1  0.02375947  0.71347174  0.09291718  1
  Sn  Sn45  1  0.00383447  0.73064118  0.37914106  1
  Sn  Sn46  1  0.01991158  0.75079278  0.62515360  1
  Sn  Sn47  1  0.02019715  0.62778491  0.89810050  1
  Sn  Sn48  1  0.73660435  0.49476824  0.14011429  1
  Sn  Sn49  1  0.69647213  0.52924663  0.37020328  1
  Sn  Sn50  1  0.73863191  0.50037494  0.62249219  1
  Sn  Sn51  1  0.69605351  0.58015876  0.84538102  1
  Sn  Sn52  1  0.51384142  0.72628622  0.07285170  1
  Sn  Sn53  1  0.45868202  0.77455120  0.31429117  1
  Sn  Sn54  1  0.50615652  0.74920216  0.59793417  1
  Sn  Sn55  1  0.48676546  0.79976251  0.86399531  1
  Sn  Sn56  1  0.22495501  0.96696036  0.08083016  1
  Sn  Sn57  1  0.24134727  0.00287847  0.36084965  1
  Sn  Sn58  1  0.28675029  0.03622436  0.59591120  1
  Sn  Sn59  1  0.22401283  0.06252136  0.83618023  1
  Sn  Sn60  1  0.74758972  0.01899357  0.13064469  1
  Sn  Sn61  1  0.74988411  0.99555336  0.36618263  1
  Sn  Sn62  1  0.71903031  0.96256339  0.65535136  1
  Sn  Sn63  1  0.74118656  0.01359475  0.91303801  1
  Cl  Cl64  1  0.95685446  0.22593639  0.99434888  1
  Cl  Cl65  1  0.02207071  0.24710363  0.26157851  1
  Cl  Cl66  1  0.00966853  0.24227985  0.53919368  1
  Cl  Cl67  1  0.98952372  0.23241009  0.80192945  1
  Cl  Cl68  1  0.53039133  0.17705934  0.97782005  1
  Cl  Cl69  1  0.43673630  0.21935629  0.22564438  1
  Cl  Cl70  1  0.57887566  0.19073776  0.46680676  1
  Cl  Cl71  1  0.49460551  0.22081882  0.72331151  1
  Cl  Cl72  1  0.22507603  0.42338897  0.96670476  1
  Cl  Cl73  1  0.33051974  0.45243407  0.22748518  1
  Cl  Cl74  1  0.24975535  0.44279590  0.48461330  1
  Cl  Cl75  1  0.19148147  0.65159838  0.71436745  1
  Cl  Cl76  1  0.02455277  0.53389949  0.00078457  1
  Cl  Cl77  1  0.98483935  0.73718713  0.26031001  1
  Cl  Cl78  1  0.95490425  0.79729186  0.52093118  1
  Cl  Cl79  1  0.98577730  0.77790027  0.80165963  1
  Cl  Cl80  1  0.79129728  0.38076972  0.05176494  1
  Cl  Cl81  1  0.70721156  0.59758960  0.25621187  1
  Cl  Cl82  1  0.68007381  0.44506683  0.51497788  1
  Cl  Cl83  1  0.80934807  0.56669500  0.75959130  1
  Cl  Cl84  1  0.57013330  0.72736269  0.95621988  1
  Cl  Cl85  1  0.48595932  0.68468974  0.21743063  1
  Cl  Cl86  1  0.43943305  0.59998413  0.54918901  1
  Cl  Cl87  1  0.33806998  0.91745890  0.75771382  1
  Cl  Cl88  1  0.16180547  0.97333465  0.97337747  1
  Cl  Cl89  1  0.16301470  0.02522819  0.24772777  1
  Cl  Cl90  1  0.32678874  0.02705830  0.48205839  1
  Cl  Cl91  1  0.22915700  0.16338856  0.74080984  1
  Cl  Cl92  1  0.75358149  0.09768103  0.02010205  1
  Cl  Cl93  1  0.70003266  0.94697949  0.25853015  1
  Cl  Cl94  1  0.86317319  0.04345567  0.49508337  1
  Cl  Cl95  1  0.74752424  0.99510849  0.76938177  1
  Cl  Cl96  1  0.99351176  0.08243295  0.11936520  1
  Cl  Cl97  1  0.11807463  0.10220723  0.40959480  1
  Cl  Cl98  1  0.25226577  0.20194458  0.57780783  1
  Cl  Cl99  1  0.17398512  0.19152829  0.90996558  1
  Cl  Cl100  1  0.58336995  0.05010055  0.13167657  1
  Cl  Cl101  1  0.65047719  0.17603939  0.31084232  1
  Cl  Cl102  1  0.69307954  0.22092400  0.63218534  1
  Cl  Cl103  1  0.72931147  0.19460296  0.86468616  1
  Cl  Cl104  1  0.41440313  0.38597034  0.07623860  1
  Cl  Cl105  1  0.27830618  0.27835761  0.36540860  1
  Cl  Cl106  1  0.33162321  0.44032730  0.70110794  1
  Cl  Cl107  1  0.38456423  0.33757215  0.86406695  1
  Cl  Cl108  1  0.15780859  0.59958397  0.19016906  1
  Cl  Cl109  1  0.13534782  0.62560006  0.36734621  1
  Cl  Cl110  1  0.13917924  0.68311945  0.55207961  1
  Cl  Cl111  1  0.18934390  0.64410772  0.90201169  1
  Cl  Cl112  1  0.88647095  0.44132251  0.19745256  1
  Cl  Cl113  1  0.83244659  0.34009075  0.34779026  1
  Cl  Cl114  1  0.89178880  0.35576866  0.66908501  1
  Cl  Cl115  1  0.86709509  0.39856036  0.88338010  1
  Cl  Cl116  1  0.58349723  0.57371815  0.07206387  1
  Cl  Cl117  1  0.61781886  0.66990891  0.40180680  1
  Cl  Cl118  1  0.66448561  0.65061134  0.60331371  1
  Cl  Cl119  1  0.67637276  0.73772375  0.80760599  1
  Cl  Cl120  1  0.38423771  0.94331427  0.05923777  1
  Cl  Cl121  1  0.31331341  0.83344491  0.27155282  1
  Cl  Cl122  1  0.33913209  0.83104329  0.58931645  1
  Cl  Cl123  1  0.34762720  0.82378830  0.92509439  1
  Cl  Cl124  1  0.95775054  0.86286777  0.11673350  1
  Cl  Cl125  1  0.82462177  0.84979764  0.37824540  1
  Cl  Cl126  1  0.81718738  0.83122344  0.65930793  1
  Cl  Cl127  1  0.78290940  0.86164291  0.96518924  1
  Cl  Cl128  1  0.79006152  0.16948853  0.17174567  1
  Cl  Cl129  1  0.88836991  0.07278933  0.32336235  1
  Cl  Cl130  1  0.91585034  0.11643131  0.66918880  1
  Cl  Cl131  1  0.91616244  0.02501089  0.89052712  1
  Cl  Cl132  1  0.33982370  0.17035525  0.07692994  1
  Cl  Cl133  1  0.46489522  0.04942557  0.34341486  1
  Cl  Cl134  1  0.50306664  0.07593696  0.60082907  1
  Cl  Cl135  1  0.37795983  0.09767827  0.86408001  1
  Cl  Cl136  1  0.13571080  0.26582963  0.11083572  1
  Cl  Cl137  1  0.06137563  0.39210829  0.39102734  1
  Cl  Cl138  1  0.11415502  0.44767141  0.63059933  1
  Cl  Cl139  1  0.06657434  0.47067077  0.80700033  1
  Cl  Cl140  1  0.85843546  0.65766511  0.10504364  1
  Cl  Cl141  1  0.90010087  0.59446794  0.39039240  1
  Cl  Cl142  1  0.93647766  0.60950995  0.62588842  1
  Cl  Cl143  1  0.80518289  0.63151539  0.92639619  1
  Cl  Cl144  1  0.63728519  0.37443223  0.18467654  1
  Cl  Cl145  1  0.55283364  0.44921561  0.34481491  1
  Cl  Cl146  1  0.60239014  0.43676030  0.67678274  1
  Cl  Cl147  1  0.61090106  0.38738876  0.92724306  1
  Cl  Cl148  1  0.34012991  0.61150341  0.08199896  1
  Cl  Cl149  1  0.37459071  0.64803044  0.35834934  1
  Cl  Cl150  1  0.45437518  0.68596245  0.70092802  1
  Cl  Cl151  1  0.41283420  0.56626983  0.91199771  1
  Cl  Cl152  1  0.20124965  0.80599034  0.08842490  1
  Cl  Cl153  1  0.16164451  0.86873837  0.40500702  1
  Cl  Cl154  1  0.12915324  0.97476664  0.57678207  1
  Cl  Cl155  1  0.01343019  0.76403322  0.97492045  1
  Cl  Cl156  1  0.64764164  0.80591276  0.11742630  1
  Cl  Cl157  1  0.65244304  0.89641878  0.51789115  1
  Cl  Cl158  1  0.58108822  0.88115174  0.68793096  1
  Cl  Cl159  1  0.55162788  0.94575603  0.89853078  1
