# generated using pymatgen
data_ZnAgF3
_symmetry_space_group_name_H-M   'P 1'
_cell_length_a   11.51643601
_cell_length_b   11.51643601
_cell_length_c   16.28670100
_cell_angle_alpha   90.00000000
_cell_angle_beta   90.00000000
_cell_angle_gamma   90.00000000
_symmetry_Int_Tables_number   1
_chemical_formula_structural   ZnAgF3
_chemical_formula_sum   'Zn32 Ag32 F96'
_cell_volume   2160.07744091
_cell_formula_units_Z   32
loop_
 _symmetry_equiv_pos_site_id
 _symmetry_equiv_pos_as_xyz
  1  'x, y, z'
loop_
 _atom_site_type_symbol
 _atom_site_label
 _atom_site_symmetry_multiplicity
 _atom_site_fract_x
 _atom_site_fract_y
 _atom_site_fract_z
 _atom_site_occupancy
  Ag  Ag0  1  0.00290548  0.01403817  0.00003101  1
  Ag  Ag1  1  0.99851649  0.98381909  0.25019027  1
  Ag  Ag2  1  0.99922610  0.00063324  0.50175153  1
  Ag  Ag3  1  0.00303101  0.99730813  0.74915768  1
  Ag  Ag4  1  0.50296928  0.01428504  0.99974942  1
  Ag  Ag5  1  0.49830633  0.98438849  0.24995159  1
  Ag  Ag6  1  0.49821409  0.00132482  0.50072047  1
  Ag  Ag7  1  0.50223407  0.99835025  0.74787011  1
  Ag  Ag8  1  0.24721068  0.26464700  0.00004997  1
  Ag  Ag9  1  0.25345889  0.23383800  0.24950091  1
  Ag  Ag10  1  0.25166399  0.24929951  0.49802754  1
  Ag  Ag11  1  0.24854077  0.25084038  0.75095731  1
  Ag  Ag12  1  0.00290780  0.51438788  0.99992044  1
  Ag  Ag13  1  0.99821016  0.48404079  0.25013319  1
  Ag  Ag14  1  0.99801778  0.50186249  0.50066384  1
  Ag  Ag15  1  0.00196632  0.49837850  0.74769082  1
  Ag  Ag16  1  0.74714960  0.26512921  0.00016630  1
  Ag  Ag17  1  0.75411647  0.23348594  0.24968664  1
  Ag  Ag18  1  0.75228638  0.24842641  0.49862706  1
  Ag  Ag19  1  0.74918501  0.24991023  0.75157752  1
  Ag  Ag20  1  0.50309916  0.51469471  0.99979835  1
  Ag  Ag21  1  0.49820548  0.48413462  0.24996266  1
  Ag  Ag22  1  0.49907285  0.50035413  0.50207464  1
  Ag  Ag23  1  0.50293105  0.49653521  0.74935377  1
  Ag  Ag24  1  0.24732146  0.76476260  0.00030502  1
  Ag  Ag25  1  0.25407339  0.73360588  0.24974296  1
  Ag  Ag26  1  0.25254253  0.74802998  0.49868048  1
  Ag  Ag27  1  0.24985455  0.74997991  0.75149197  1
  Ag  Ag28  1  0.74697768  0.76489856  0.00003115  1
  Ag  Ag29  1  0.75360701  0.73398806  0.24967611  1
  Ag  Ag30  1  0.75189137  0.74911755  0.49780911  1
  Ag  Ag31  1  0.74861816  0.75051308  0.75097780  1
  F  F32  1  0.96364426  0.23225198  0.00027290  1
  F  F33  1  0.03706138  0.26586233  0.24980651  1
  F  F34  1  0.96606942  0.23821842  0.49977622  1
  F  F35  1  0.03465062  0.26020308  0.75028120  1
  F  F36  1  0.46364192  0.23257283  0.00011009  1
  F  F37  1  0.53765090  0.26590655  0.24970134  1
  F  F38  1  0.46546577  0.23922025  0.49977026  1
  F  F39  1  0.53550757  0.25934149  0.75012453  1
  F  F40  1  0.28884889  0.49699401  0.00038109  1
  F  F41  1  0.21239562  0.50101320  0.24967073  1
  F  F42  1  0.28496166  0.50898950  0.49969272  1
  F  F43  1  0.21616298  0.48932158  0.75039910  1
  F  F44  1  0.96325883  0.73265070  0.00019395  1
  F  F45  1  0.03758016  0.76550368  0.24984237  1
  F  F46  1  0.96580557  0.73910936  0.49981878  1
  F  F47  1  0.03612030  0.75932738  0.75013781  1
  F  F48  1  0.78849854  0.49670429  0.00037618  1
  F  F49  1  0.71251660  0.50187494  0.24961367  1
  F  F50  1  0.78360745  0.51035905  0.49971383  1
  F  F51  1  0.71737628  0.48814686  0.75027452  1
  F  F52  1  0.46397649  0.73257275  0.00010474  1
  F  F53  1  0.53705660  0.76636805  0.24973383  1
  F  F54  1  0.46644799  0.73800703  0.49965440  1
  F  F55  1  0.53480823  0.76006541  0.75017809  1
  F  F56  1  0.28867443  0.99691983  0.00032841  1
  F  F57  1  0.21262299  0.00163054  0.24959668  1
  F  F58  1  0.28420949  0.01047991  0.49969531  1
  F  F59  1  0.21703682  0.98803316  0.75020440  1
  F  F60  1  0.78854773  0.99627888  0.00034055  1
  F  F61  1  0.71260043  0.00155462  0.24969834  1
  F  F62  1  0.78484793  0.00911063  0.49971247  1
  F  F63  1  0.71643786  0.98924735  0.75023962  1
  F  F64  1  0.14706322  0.14553985  0.10882632  1
  F  F65  1  0.14758522  0.14809784  0.38756607  1
  F  F66  1  0.10201327  0.10088302  0.61438769  1
  F  F67  1  0.14814485  0.14487575  0.88905969  1
  F  F68  1  0.64741665  0.14581340  0.10890672  1
  F  F69  1  0.64768266  0.14818165  0.38804227  1
  F  F70  1  0.60206718  0.10085586  0.61333729  1
  F  F71  1  0.64815294  0.14501563  0.88943389  1
  F  F72  1  0.35423946  0.35293823  0.14106974  1
  F  F73  1  0.35284475  0.35303589  0.36040579  1
  F  F74  1  0.39861043  0.39729519  0.63672833  1
  F  F75  1  0.35343360  0.35044442  0.86176923  1
  F  F76  1  0.14687035  0.64534032  0.10890774  1
  F  F77  1  0.14771619  0.64780861  0.38808046  1
  F  F78  1  0.10241234  0.60115875  0.61319440  1
  F  F79  1  0.14814857  0.64506331  0.88975112  1
  F  F80  1  0.85395005  0.35273424  0.14126223  1
  F  F81  1  0.85293650  0.35354091  0.36103187  1
  F  F82  1  0.89908404  0.39768087  0.63528000  1
  F  F83  1  0.85322142  0.35003239  0.86255306  1
  F  F84  1  0.64692829  0.64567979  0.10884659  1
  F  F85  1  0.64786110  0.64855707  0.38720238  1
  F  F86  1  0.60197559  0.60066116  0.61468068  1
  F  F87  1  0.64839142  0.64498218  0.88890734  1
  F  F88  1  0.35403097  0.85295968  0.14105946  1
  F  F89  1  0.35285488  0.85338900  0.36110436  1
  F  F90  1  0.39925631  0.89745148  0.63545412  1
  F  F91  1  0.35353704  0.85044131  0.86237186  1
  F  F92  1  0.85400969  0.85257526  0.14128956  1
  F  F93  1  0.85302714  0.85321984  0.36051582  1
  F  F94  1  0.89920744  0.89772350  0.63666030  1
  F  F95  1  0.85370060  0.85035420  0.86157649  1
  F  F96  1  0.89595792  0.10425017  0.14819240  1
  F  F97  1  0.89502441  0.10524519  0.35205647  1
  F  F98  1  0.85285186  0.14687830  0.64579123  1
  F  F99  1  0.89825600  0.10112870  0.85347731  1
  F  F100  1  0.39568157  0.10494541  0.14813462  1
  F  F101  1  0.39556843  0.10497275  0.35233894  1
  F  F102  1  0.35354333  0.14612228  0.64645985  1
  F  F103  1  0.39835195  0.10130590  0.85323203  1
  F  F104  1  0.10553617  0.39346509  0.10173612  1
  F  F105  1  0.10308040  0.39682022  0.39691423  1
  F  F106  1  0.14806787  0.35173762  0.60426111  1
  F  F107  1  0.10617061  0.39288478  0.89820584  1
  F  F108  1  0.89571072  0.60440358  0.14806065  1
  F  F109  1  0.89550370  0.60492325  0.35257903  1
  F  F110  1  0.85362622  0.64641889  0.64628897  1
  F  F111  1  0.89872313  0.60097511  0.85346609  1
  F  F112  1  0.60548770  0.39391150  0.10163350  1
  F  F113  1  0.60268978  0.39741213  0.39649269  1
  F  F114  1  0.64760395  0.35201939  0.60375506  1
  F  F115  1  0.60561929  0.39340901  0.89746199  1
  F  F116  1  0.39538640  0.60496895  0.14823987  1
  F  F117  1  0.39496492  0.60531106  0.35183827  1
  F  F118  1  0.35324793  0.64649410  0.64577693  1
  F  F119  1  0.39821162  0.60130729  0.85327709  1
  F  F120  1  0.10570743  0.89336532  0.10178388  1
  F  F121  1  0.10304615  0.89709427  0.39657292  1
  F  F122  1  0.14788123  0.85218268  0.60348083  1
  F  F123  1  0.10589079  0.89323719  0.89776100  1
  F  F124  1  0.60538756  0.89387486  0.10181647  1
  F  F125  1  0.60308413  0.89714070  0.39668708  1
  F  F126  1  0.64852029  0.85146935  0.60421346  1
  F  F127  1  0.60618804  0.89302882  0.89775777  1
  Zn  Zn128  1  0.00042715  0.24912648  0.12496941  1
  Zn  Zn129  1  0.00020220  0.24911774  0.37465913  1
  Zn  Zn130  1  0.00052547  0.24924633  0.62498752  1
  Zn  Zn131  1  0.00077211  0.24924936  0.87544629  1
  Zn  Zn132  1  0.50069781  0.24933662  0.12491447  1
  Zn  Zn133  1  0.50039737  0.24930530  0.37455888  1
  Zn  Zn134  1  0.50044725  0.24916070  0.62492562  1
  Zn  Zn135  1  0.50068090  0.24920481  0.87530452  1
  Zn  Zn136  1  0.25049764  0.49909738  0.12497511  1
  Zn  Zn137  1  0.24969086  0.49890005  0.37458540  1
  Zn  Zn138  1  0.25052302  0.49926429  0.62503726  1
  Zn  Zn139  1  0.25143973  0.49939002  0.87548415  1
  Zn  Zn140  1  0.00046950  0.74902484  0.12497497  1
  Zn  Zn141  1  0.00052176  0.74917976  0.37465195  1
  Zn  Zn142  1  0.00068500  0.74945712  0.62502566  1
  Zn  Zn143  1  0.00082659  0.74920264  0.87535680  1
  Zn  Zn144  1  0.75054327  0.49931834  0.12499446  1
  Zn  Zn145  1  0.74938638  0.49926509  0.37454209  1
  Zn  Zn146  1  0.75056946  0.49929131  0.62501258  1
  Zn  Zn147  1  0.75180722  0.49933804  0.87540591  1
  Zn  Zn148  1  0.50045720  0.74932846  0.12493836  1
  Zn  Zn149  1  0.50019998  0.74921930  0.37451600  1
  Zn  Zn150  1  0.50070485  0.74915873  0.62493114  1
  Zn  Zn151  1  0.50082577  0.74928530  0.87525890  1
  Zn  Zn152  1  0.25064179  0.99932066  0.12494713  1
  Zn  Zn153  1  0.24958472  0.99927148  0.37460317  1
  Zn  Zn154  1  0.25063935  0.99926242  0.62494176  1
  Zn  Zn155  1  0.25167866  0.99939538  0.87535186  1
  Zn  Zn156  1  0.75062029  0.99915543  0.12502101  1
  Zn  Zn157  1  0.74971215  0.99912103  0.37464223  1
  Zn  Zn158  1  0.75062287  0.99925400  0.62498723  1
  Zn  Zn159  1  0.75156990  0.99933463  0.87538524  1
