# generated using pymatgen
data_BaLiF3
_symmetry_space_group_name_H-M   'P 1'
_cell_length_a   11.45245982
_cell_length_b   11.45245982
_cell_length_c   16.19622500
_cell_angle_alpha   90.00000000
_cell_angle_beta   90.00000000
_cell_angle_gamma   90.00000000
_symmetry_Int_Tables_number   1
_chemical_formula_structural   BaLiF3
_chemical_formula_sum   'Ba32 Li32 F96'
_cell_volume   2124.27801745
_cell_formula_units_Z   32
loop_
 _symmetry_equiv_pos_site_id
 _symmetry_equiv_pos_as_xyz
  1  'x, y, z'
loop_
 _atom_site_type_symbol
 _atom_site_label
 _atom_site_symmetry_multiplicity
 _atom_site_fract_x
 _atom_site_fract_y
 _atom_site_fract_z
 _atom_site_occupancy
  Ba  Ba0  1  0.99902927  -0.00037995  0.00056148  1
  Ba  Ba1  1  0.99900568  -0.00020315  0.25059515  1
  Ba  Ba2  1  -0.00077372  -0.00021919  0.50051706  1
  Ba  Ba3  1  -0.00087227  -0.00040493  0.75053495  1
  Ba  Ba4  1  0.49901235  -0.00047936  0.00056987  1
  Ba  Ba5  1  0.49907553  -0.00044361  0.25058457  1
  Ba  Ba6  1  0.49927592  -0.00034823  0.50054862  1
  Ba  Ba7  1  0.49913443  -0.00038547  0.75053073  1
  Ba  Ba8  1  0.24900120  0.24970951  0.00056538  1
  Ba  Ba9  1  0.24893487  0.24976695  0.25053221  1
  Ba  Ba10  1  0.24920083  0.24986433  0.50049059  1
  Ba  Ba11  1  0.24912742  0.24975759  0.75052571  1
  Ba  Ba12  1  0.99888084  0.49953195  0.00058324  1
  Ba  Ba13  1  0.99892565  0.49965491  0.25058610  1
  Ba  Ba14  1  -0.00093072  0.49976372  0.50055352  1
  Ba  Ba15  1  -0.00102209  0.49959695  0.75054747  1
  Ba  Ba16  1  0.74900073  0.24938346  0.00057898  1
  Ba  Ba17  1  0.74894278  0.24957557  0.25052778  1
  Ba  Ba18  1  0.74920064  0.24965940  0.50054772  1
  Ba  Ba19  1  0.74913049  0.24946593  0.75054849  1
  Ba  Ba20  1  0.49893794  0.49949002  0.00058500  1
  Ba  Ba21  1  0.49888889  0.49959860  0.25054202  1
  Ba  Ba22  1  0.49908394  0.49968685  0.50049801  1
  Ba  Ba23  1  0.49898261  0.49955443  0.75059363  1
  Ba  Ba24  1  0.24889236  0.74968743  0.00056282  1
  Ba  Ba25  1  0.24888706  0.74973030  0.25053244  1
  Ba  Ba26  1  0.24918840  0.74981641  0.50049306  1
  Ba  Ba27  1  0.24899824  0.74975335  0.75052696  1
  Ba  Ba28  1  0.74891892  0.74938239  0.00055302  1
  Ba  Ba29  1  0.74888426  0.74954467  0.25049063  1
  Ba  Ba30  1  0.74906961  0.74963208  0.50054773  1
  Ba  Ba31  1  0.74912118  0.74940836  0.75056379  1
  F  F32  1  -0.00090144  0.24942875  0.00043438  1
  F  F33  1  0.99876688  0.24999498  0.25054897  1
  F  F34  1  -0.00086132  0.24951658  0.50055201  1
  F  F35  1  -0.00099402  0.24992165  0.75050595  1
  F  F36  1  0.49906628  0.24890088  0.00049831  1
  F  F37  1  0.49895642  0.24990410  0.25047450  1
  F  F38  1  0.49920173  0.24944026  0.50043885  1
  F  F39  1  0.49897005  0.24986976  0.75050295  1
  F  F40  1  0.24857360  0.49988598  0.00047436  1
  F  F41  1  0.24912304  0.49957451  0.25049323  1
  F  F42  1  0.24910655  0.50013976  0.50049651  1
  F  F43  1  0.24917307  0.49943017  0.75048341  1
  F  F44  1  0.99893562  0.74921678  0.00050275  1
  F  F45  1  0.99882858  0.75006431  0.25051809  1
  F  F46  1  -0.00085530  0.74950923  0.50047505  1
  F  F47  1  0.99918384  0.74994208  0.75048913  1
  F  F48  1  0.74871919  0.49969398  0.00047507  1
  F  F49  1  0.74903735  0.49914277  0.25048872  1
  F  F50  1  0.74885908  0.49983351  0.50056659  1
  F  F51  1  0.74900004  0.49906155  0.75052746  1
  F  F52  1  0.49893611  0.74922539  0.00045612  1
  F  F53  1  0.49870243  0.74977080  0.25049976  1
  F  F54  1  0.49931691  0.74942144  0.50053530  1
  F  F55  1  0.49886649  0.74990370  0.75060096  1
  F  F56  1  0.24897295  0.00001985  0.00055324  1
  F  F57  1  0.24902926  0.99955886  0.25051652  1
  F  F58  1  0.24910860  0.00030474  0.50049622  1
  F  F59  1  0.24941737  -0.00055356  0.75051608  1
  F  F60  1  0.74893298  0.99969296  0.00046751  1
  F  F61  1  0.74926383  -0.00083552  0.25045368  1
  F  F62  1  0.74896052  -0.00029286  0.50051196  1
  F  F63  1  0.74958519  0.99914067  0.75050747  1
  F  F64  1  0.12416199  0.12495449  0.12556346  1
  F  F65  1  0.12430809  0.12502186  0.37532894  1
  F  F66  1  0.12430977  0.12476690  0.62567329  1
  F  F67  1  0.12443379  0.12488499  0.87532781  1
  F  F68  1  0.62426348  0.12457550  0.12568736  1
  F  F69  1  0.62435061  0.12467894  0.37530106  1
  F  F70  1  0.62427015  0.12455205  0.62568977  1
  F  F71  1  0.62436366  0.12447837  0.87522517  1
  F  F72  1  0.37381268  0.37451419  0.12522171  1
  F  F73  1  0.37402154  0.37478649  0.37555617  1
  F  F74  1  0.37436982  0.37490964  0.62536414  1
  F  F75  1  0.37413283  0.37465269  0.87573221  1
  F  F76  1  0.12404251  0.62486260  0.12569938  1
  F  F77  1  0.12416083  0.62491204  0.37531226  1
  F  F78  1  0.12403714  0.62470141  0.62559096  1
  F  F79  1  0.12424525  0.62493202  0.87535612  1
  F  F80  1  0.87384011  0.37435792  0.12527945  1
  F  F81  1  0.87402591  0.37478888  0.37572838  1
  F  F82  1  0.87429466  0.37484078  0.62542843  1
  F  F83  1  0.87404119  0.37439891  0.87570396  1
  F  F84  1  0.62409158  0.62463690  0.12566120  1
  F  F85  1  0.62413934  0.62456939  0.37526336  1
  F  F86  1  0.62392864  0.62441995  0.62580286  1
  F  F87  1  0.62419234  0.62449022  0.87537696  1
  F  F88  1  0.37387394  0.87451397  0.12532585  1
  F  F89  1  0.37427347  0.87492865  0.37563501  1
  F  F90  1  0.37441660  0.87491881  0.62527589  1
  F  F91  1  0.37408614  0.87468410  0.87568916  1
  F  F92  1  0.87391047  0.87437088  0.12525123  1
  F  F93  1  0.87431274  0.87483391  0.37563694  1
  F  F94  1  0.87439940  0.87469545  0.62529734  1
  F  F95  1  0.87405418  0.87427222  0.87568291  1
  F  F96  1  0.87426366  0.12438172  0.12552829  1
  F  F97  1  0.87423327  0.12471313  0.37547916  1
  F  F98  1  0.87428087  0.12469500  0.62550584  1
  F  F99  1  0.87438745  0.12436086  0.87540419  1
  F  F100  1  0.37422971  0.12454031  0.12566107  1
  F  F101  1  0.37432603  0.12472117  0.37536614  1
  F  F102  1  0.37429163  0.12488153  0.62555378  1
  F  F103  1  0.37434404  0.12457734  0.87533705  1
  F  F104  1  0.12379746  0.37486785  0.12549235  1
  F  F105  1  0.12399806  0.37499362  0.37562554  1
  F  F106  1  0.12431503  0.37468664  0.62532280  1
  F  F107  1  0.12402774  0.37487638  0.87547408  1
  F  F108  1  0.87404445  0.62438236  0.12560664  1
  F  F109  1  0.87404430  0.62477308  0.37544911  1
  F  F110  1  0.87402301  0.62477148  0.62558872  1
  F  F111  1  0.87427357  0.62425015  0.87532315  1
  F  F112  1  0.62383419  0.37459514  0.12535464  1
  F  F113  1  0.62406044  0.37465246  0.37559722  1
  F  F114  1  0.62430512  0.37442652  0.62543495  1
  F  F115  1  0.62418772  0.37428774  0.87560472  1
  F  F116  1  0.37408720  0.62451139  0.12542237  1
  F  F117  1  0.37410403  0.62481434  0.37551013  1
  F  F118  1  0.37400881  0.62486512  0.62567910  1
  F  F119  1  0.37411204  0.62456402  0.87547351  1
  F  F120  1  0.12387721  0.87485413  0.12540704  1
  F  F121  1  0.12423732  0.87486437  0.37562212  1
  F  F122  1  0.12435082  0.87479038  0.62534037  1
  F  F123  1  0.12408883  0.87483188  0.87558232  1
  F  F124  1  0.62389819  0.87455193  0.12536267  1
  F  F125  1  0.62430266  0.87455582  0.37546947  1
  F  F126  1  0.62437945  0.87444734  0.62555738  1
  F  F127  1  0.62411203  0.87442721  0.87551986  1
  Li  Li128  1  -0.00117141  0.24960516  0.12553437  1
  Li  Li129  1  0.99891962  0.24989882  0.37567429  1
  Li  Li130  1  -0.00094708  0.24967290  0.62563323  1
  Li  Li131  1  -0.00096558  0.24966119  0.87560442  1
  Li  Li132  1  0.49890106  0.24941368  0.12566794  1
  Li  Li133  1  0.49901553  0.24957358  0.37551200  1
  Li  Li134  1  0.49911561  0.24958270  0.62555767  1
  Li  Li135  1  0.49900926  0.24933868  0.87559154  1
  Li  Li136  1  0.24865539  0.49977889  0.12551285  1
  Li  Li137  1  0.24885518  0.49986941  0.37562982  1
  Li  Li138  1  0.24896554  0.49979235  0.62557045  1
  Li  Li139  1  0.24882181  0.49972311  0.87558845  1
  Li  Li140  1  0.99876554  0.74966676  0.12561595  1
  Li  Li141  1  0.99895235  0.74984935  0.37558948  1
  Li  Li142  1  -0.00092165  0.74968356  0.62548240  1
  Li  Li143  1  0.99897034  0.74956365  0.87561179  1
  Li  Li144  1  0.74866466  0.49929656  0.12565069  1
  Li  Li145  1  0.74885703  0.49953229  0.37557943  1
  Li  Li146  1  0.74874307  0.49956591  0.62570066  1
  Li  Li147  1  0.74890269  0.49913699  0.87565848  1
  Li  Li148  1  0.49864837  0.74950459  0.12555291  1
  Li  Li149  1  0.49894176  0.74964932  0.37556575  1
  Li  Li150  1  0.49892356  0.74951846  0.62572692  1
  Li  Li151  1  0.49887808  0.74952856  0.87563994  1
  Li  Li152  1  0.24878588  -0.00023122  0.12564421  1
  Li  Li153  1  0.24912772  -0.00004904  0.37561686  1
  Li  Li154  1  0.24918325  -0.00014498  0.62554865  1
  Li  Li155  1  0.24910971  -0.00022729  0.87568105  1
  Li  Li156  1  0.74890519  0.99927345  0.12556751  1
  Li  Li157  1  0.74915247  -0.00058819  0.37557589  1
  Li  Li158  1  0.74929735  0.99937336  0.62561736  1
  Li  Li159  1  0.74900741  0.99921357  0.87553173  1
