# generated using pymatgen
data_BaLiCl3
_symmetry_space_group_name_H-M   'P 1'
_cell_length_a   13.89497918
_cell_length_b   13.89497918
_cell_length_c   19.65046700
_cell_angle_alpha   90.00000000
_cell_angle_beta   90.00000000
_cell_angle_gamma   90.00000000
_symmetry_Int_Tables_number   1
_chemical_formula_structural   BaLiCl3
_chemical_formula_sum   'Ba32 Li32 Cl96'
_cell_volume   3793.92443388
_cell_formula_units_Z   32
loop_
 _symmetry_equiv_pos_site_id
 _symmetry_equiv_pos_as_xyz
  1  'x, y, z'
loop_
 _atom_site_type_symbol
 _atom_site_label
 _atom_site_symmetry_multiplicity
 _atom_site_fract_x
 _atom_site_fract_y
 _atom_site_fract_z
 _atom_site_occupancy
  Ba  Ba0  1  0.98902389  0.00652578  0.00888048  1
  Ba  Ba1  1  0.00026322  0.96064368  0.24951272  1
  Ba  Ba2  1  0.98916938  0.00613370  0.48999009  1
  Ba  Ba3  1  0.00228601  0.03765666  0.74934549  1
  Ba  Ba4  1  0.51074056  0.98581990  0.99536430  1
  Ba  Ba5  1  0.51440721  0.97526604  0.24925749  1
  Ba  Ba6  1  0.51008676  0.98586971  0.50311723  1
  Ba  Ba7  1  0.50505609  0.02537045  0.74930399  1
  Ba  Ba8  1  0.26098359  0.24474460  0.98980923  1
  Ba  Ba9  1  0.24679015  0.21276378  0.24938572  1
  Ba  Ba10  1  0.26068170  0.24486117  0.50877323  1
  Ba  Ba11  1  0.24915457  0.29022618  0.74926212  1
  Ba  Ba12  1  0.01079227  0.48579059  0.99525559  1
  Ba  Ba13  1  0.01448998  0.47534769  0.24929039  1
  Ba  Ba14  1  0.01007951  0.48594760  0.50316031  1
  Ba  Ba15  1  0.00481517  0.52532814  0.74933603  1
  Ba  Ba16  1  0.73909614  0.26483145  0.00332876  1
  Ba  Ba17  1  0.74798168  0.22840260  0.24950896  1
  Ba  Ba18  1  0.73918208  0.26418327  0.49545026  1
  Ba  Ba19  1  0.73705254  0.27738071  0.74928961  1
  Ba  Ba20  1  0.48906846  0.50653668  0.00892083  1
  Ba  Ba21  1  0.50030720  0.46063183  0.24953410  1
  Ba  Ba22  1  0.48906554  0.50605839  0.48999454  1
  Ba  Ba23  1  0.50240676  0.53768175  0.74936272  1
  Ba  Ba24  1  0.23906292  0.76476500  0.00340065  1
  Ba  Ba25  1  0.24799054  0.72842435  0.24951367  1
  Ba  Ba26  1  0.23921704  0.76418037  0.49538804  1
  Ba  Ba27  1  0.23700059  0.77729836  0.74931591  1
  Ba  Ba28  1  0.76102367  0.74485118  0.98976999  1
  Ba  Ba29  1  0.74676923  0.71269171  0.24937446  1
  Ba  Ba30  1  0.76062730  0.74495091  0.50883246  1
  Ba  Ba31  1  0.74920931  0.79016382  0.74927640  1
  Cl  Cl32  1  0.04037373  0.24868392  0.99992838  1
  Cl  Cl33  1  0.96294035  0.25432177  0.24930939  1
  Cl  Cl34  1  0.04007487  0.24892817  0.49873281  1
  Cl  Cl35  1  0.96209247  0.25997217  0.74926707  1
  Cl  Cl36  1  0.51518835  0.27422063  0.99923515  1
  Cl  Cl37  1  0.47777955  0.22645811  0.24943904  1
  Cl  Cl38  1  0.51533620  0.27380616  0.49953961  1
  Cl  Cl39  1  0.47875630  0.24140285  0.74935204  1
  Cl  Cl40  1  0.23476574  0.47731140  0.99947353  1
  Cl  Cl41  1  0.26999843  0.51159727  0.24940129  1
  Cl  Cl42  1  0.23418326  0.47748792  0.49939788  1
  Cl  Cl43  1  0.27170913  0.52388592  0.74930773  1
  Cl  Cl44  1  0.01514790  0.77441350  0.99920348  1
  Cl  Cl45  1  0.97777595  0.72641850  0.24943890  1
  Cl  Cl46  1  0.01533417  0.77387477  0.49957973  1
  Cl  Cl47  1  0.97884326  0.74140777  0.74937138  1
  Cl  Cl48  1  0.70964891  0.50231007  0.99878606  1
  Cl  Cl49  1  0.78881124  0.49065768  0.24940903  1
  Cl  Cl50  1  0.70968822  0.50204655  0.49995603  1
  Cl  Cl51  1  0.78941836  0.49770130  0.74934883  1
  Cl  Cl52  1  0.54045362  0.74862847  -0.00001685  1
  Cl  Cl53  1  0.46296576  0.75428152  0.24927415  1
  Cl  Cl54  1  0.54009449  0.74875384  0.49880194  1
  Cl  Cl55  1  0.46202152  0.75983944  0.74927442  1
  Cl  Cl56  1  0.20961997  0.00227583  0.99880899  1
  Cl  Cl57  1  0.28874011  0.99059507  0.24944363  1
  Cl  Cl58  1  0.20962394  0.00208132  0.49989625  1
  Cl  Cl59  1  0.28967118  0.99752371  0.74935057  1
  Cl  Cl60  1  0.73485586  0.97737922  0.99946155  1
  Cl  Cl61  1  0.77011876  0.01158232  0.24943112  1
  Cl  Cl62  1  0.73413212  0.97775453  0.49944777  1
  Cl  Cl63  1  0.77177301  0.02389088  0.74931659  1
  Cl  Cl64  1  0.09982458  0.09684808  0.14602089  1
  Cl  Cl65  1  0.09964374  0.09687291  0.35286378  1
  Cl  Cl66  1  0.15032800  0.15393132  0.64577355  1
  Cl  Cl67  1  0.15032897  0.15393713  0.85279844  1
  Cl  Cl68  1  0.60153385  0.09774614  0.12420221  1
  Cl  Cl69  1  0.60152502  0.09780657  0.37444470  1
  Cl  Cl70  1  0.64817924  0.15376358  0.62551367  1
  Cl  Cl71  1  0.64827504  0.15360332  0.87349500  1
  Cl  Cl72  1  0.39003558  0.38703013  0.12275789  1
  Cl  Cl73  1  0.38962913  0.38664374  0.37622336  1
  Cl  Cl74  1  0.35983647  0.36439972  0.62242596  1
  Cl  Cl75  1  0.35999426  0.36447119  0.87611206  1
  Cl  Cl76  1  0.10155417  0.59782968  0.12415109  1
  Cl  Cl77  1  0.10159255  0.59788426  0.37441731  1
  Cl  Cl78  1  0.14812624  0.65375426  0.62539926  1
  Cl  Cl79  1  0.14825707  0.65367273  0.87360553  1
  Cl  Cl80  1  0.88960332  0.38794371  0.10356840  1
  Cl  Cl81  1  0.88920113  0.38749883  0.39499476  1
  Cl  Cl82  1  0.85990752  0.36300040  0.60356838  1
  Cl  Cl83  1  0.86028389  0.36300305  0.89518283  1
  Cl  Cl84  1  0.59982687  0.59672186  0.14600197  1
  Cl  Cl85  1  0.59972437  0.59680863  0.35296706  1
  Cl  Cl86  1  0.65024730  0.65391242  0.64570451  1
  Cl  Cl87  1  0.65028836  0.65397973  0.85274928  1
  Cl  Cl88  1  0.38966052  0.88794868  0.10368667  1
  Cl  Cl89  1  0.38925499  0.88741631  0.39494738  1
  Cl  Cl90  1  0.35997720  0.86276505  0.60351340  1
  Cl  Cl91  1  0.36026184  0.86299299  0.89533392  1
  Cl  Cl92  1  0.89000634  0.88708613  0.12279627  1
  Cl  Cl93  1  0.88963204  0.88679146  0.37624788  1
  Cl  Cl94  1  0.85988262  0.86440083  0.62245099  1
  Cl  Cl95  1  0.86007863  0.86450181  0.87608411  1
  Cl  Cl96  1  0.85366492  0.14093795  0.10491613  1
  Cl  Cl97  1  0.85372213  0.14055401  0.39370671  1
  Cl  Cl98  1  0.89795327  0.11245086  0.60839677  1
  Cl  Cl99  1  0.89824488  0.11234981  0.89003845  1
  Cl  Cl100  1  0.35154550  0.13903341  0.10868871  1
  Cl  Cl101  1  0.35159239  0.13847784  0.39020011  1
  Cl  Cl102  1  0.39657049  0.11039260  0.60466190  1
  Cl  Cl103  1  0.39681509  0.11055052  0.89400160  1
  Cl  Cl104  1  0.14307602  0.34923937  0.14569155  1
  Cl  Cl105  1  0.14274421  0.34922702  0.35300834  1
  Cl  Cl106  1  0.10674379  0.40192964  0.64121530  1
  Cl  Cl107  1  0.10711956  0.40185572  0.85730364  1
  Cl  Cl108  1  0.85147721  0.63904370  0.10860744  1
  Cl  Cl109  1  0.85156195  0.63866049  0.39024514  1
  Cl  Cl110  1  0.89657309  0.61054297  0.60477429  1
  Cl  Cl111  1  0.89675629  0.61055458  0.89393699  1
  Cl  Cl112  1  0.64273393  0.34913519  0.14166726  1
  Cl  Cl113  1  0.64254037  0.34913993  0.35732269  1
  Cl  Cl114  1  0.60742152  0.40225746  0.64592500  1
  Cl  Cl115  1  0.60771054  0.40224270  0.85271326  1
  Cl  Cl116  1  0.35378136  0.64091256  0.10497696  1
  Cl  Cl117  1  0.35391699  0.64050030  0.39365702  1
  Cl  Cl118  1  0.39793065  0.61235759  0.60846168  1
  Cl  Cl119  1  0.39821503  0.61230673  0.89013739  1
  Cl  Cl120  1  0.14276133  0.84911225  0.14162998  1
  Cl  Cl121  1  0.14259362  0.84909274  0.35737559  1
  Cl  Cl122  1  0.10748104  0.90227698  0.64598302  1
  Cl  Cl123  1  0.10772299  0.90229736  0.85258422  1
  Cl  Cl124  1  0.64312465  0.84928186  0.14570472  1
  Cl  Cl125  1  0.64280380  0.84918162  0.35306011  1
  Cl  Cl126  1  0.60692909  0.90187644  0.64126301  1
  Cl  Cl127  1  0.60705795  0.90177996  0.85732418  1
  Li  Li128  1  0.99939492  0.24593364  0.12528625  1
  Li  Li129  1  0.99922876  0.24579736  0.37343455  1
  Li  Li130  1  0.99986548  0.25525465  0.62387204  1
  Li  Li131  1  0.00007099  0.25510971  0.87476985  1
  Li  Li132  1  0.49449146  0.24023746  0.12333713  1
  Li  Li133  1  0.49438259  0.24003736  0.37548567  1
  Li  Li134  1  0.50226326  0.25950866  0.62469150  1
  Li  Li135  1  0.50247986  0.25961784  0.87398342  1
  Li  Li136  1  0.24764366  0.49239273  0.12464061  1
  Li  Li137  1  0.24737469  0.49221050  0.37416318  1
  Li  Li138  1  0.25514882  0.51095360  0.62318826  1
  Li  Li139  1  0.25555140  0.51089790  0.87551233  1
  Li  Li140  1  0.99442867  0.74028203  0.12330272  1
  Li  Li141  1  0.99449129  0.74011908  0.37549805  1
  Li  Li142  1  0.00236572  0.75954912  0.62472455  1
  Li  Li143  1  0.00244685  0.75960053  0.87396440  1
  Li  Li144  1  0.75012756  0.49582578  0.12378708  1
  Li  Li145  1  0.74992728  0.49559227  0.37506294  1
  Li  Li146  1  0.75113724  0.50548373  0.62542188  1
  Li  Li147  1  0.75128771  0.50556201  0.87326323  1
  Li  Li148  1  0.49949681  0.74589917  0.12526173  1
  Li  Li149  1  0.49932029  0.74573644  0.37341847  1
  Li  Li150  1  0.49986961  0.75522827  0.62390184  1
  Li  Li151  1  0.49992557  0.75512454  0.87474464  1
  Li  Li152  1  0.25009479  0.99583648  0.12374226  1
  Li  Li153  1  0.24991113  0.99556492  0.37503376  1
  Li  Li154  1  0.25131247  0.00547010  0.62550241  1
  Li  Li155  1  0.25139409  0.00554193  0.87316120  1
  Li  Li156  1  0.74763100  0.99228185  0.12465933  1
  Li  Li157  1  0.74740841  0.99221964  0.37426186  1
  Li  Li158  1  0.75515009  0.01086805  0.62324808  1
  Li  Li159  1  0.75549323  0.01076120  0.87546687  1
