# generated using pymatgen
data_CaAgCl3
_symmetry_space_group_name_H-M   'P 1'
_cell_length_a   14.52810703
_cell_length_b   14.52810703
_cell_length_c   20.54584700
_cell_angle_alpha   90.00000000
_cell_angle_beta   90.00000000
_cell_angle_gamma   90.00000000
_symmetry_Int_Tables_number   1
_chemical_formula_structural   CaAgCl3
_chemical_formula_sum   'Ca32 Ag32 Cl96'
_cell_volume   4336.52756356
_cell_formula_units_Z   32
loop_
 _symmetry_equiv_pos_site_id
 _symmetry_equiv_pos_as_xyz
  1  'x, y, z'
loop_
 _atom_site_type_symbol
 _atom_site_label
 _atom_site_symmetry_multiplicity
 _atom_site_fract_x
 _atom_site_fract_y
 _atom_site_fract_z
 _atom_site_occupancy
  Ca  Ca0  1  0.99195556  0.99920332  0.02077337  1
  Ca  Ca1  1  0.88677864  0.95100732  0.21393684  1
  Ca  Ca2  1  0.88804174  0.05219291  0.45808974  1
  Ca  Ca3  1  0.02410512  0.97108560  0.81010948  1
  Ca  Ca4  1  0.39237597  0.11367804  0.03617345  1
  Ca  Ca5  1  0.38694497  0.98401250  0.23778791  1
  Ca  Ca6  1  0.42289062  0.92088037  0.51499747  1
  Ca  Ca7  1  0.50490645  0.04494063  0.72834053  1
  Ca  Ca8  1  0.36512039  0.34784589  0.93023108  1
  Ca  Ca9  1  0.28817450  0.26453867  0.28511634  1
  Ca  Ca10  1  0.17974521  0.26224643  0.47990085  1
  Ca  Ca11  1  0.23760664  0.23642151  0.72973898  1
  Ca  Ca12  1  0.95209182  0.51246771  0.96672969  1
  Ca  Ca13  1  0.02387004  0.44508983  0.19855251  1
  Ca  Ca14  1  0.96772759  0.54516669  0.53626797  1
  Ca  Ca15  1  0.94018782  0.46435487  0.75170489  1
  Ca  Ca16  1  0.80875714  0.22408966  0.06758197  1
  Ca  Ca17  1  0.79735287  0.27348505  0.25630460  1
  Ca  Ca18  1  0.67448287  0.35273496  0.48288789  1
  Ca  Ca19  1  0.72416768  0.18204460  0.76188134  1
  Ca  Ca20  1  0.50349875  0.58914881  0.95230711  1
  Ca  Ca21  1  0.48159081  0.51028560  0.30388672  1
  Ca  Ca22  1  0.44641486  0.41026664  0.56467109  1
  Ca  Ca23  1  0.41637583  0.70539358  0.71791035  1
  Ca  Ca24  1  0.29300645  0.86720624  0.06025046  1
  Ca  Ca25  1  0.30802525  0.69129731  0.22555375  1
  Ca  Ca26  1  0.19157110  0.76700728  0.50840414  1
  Ca  Ca27  1  0.13418063  0.74094863  0.71480895  1
  Ca  Ca28  1  0.78440165  0.76038654  0.00448544  1
  Ca  Ca29  1  0.80731786  0.69027640  0.25710066  1
  Ca  Ca30  1  0.74658316  0.79689645  0.47828715  1
  Ca  Ca31  1  0.73640813  0.69178633  0.79753708  1
  Ag  Ag32  1  0.13316641  0.25776439  0.06551014  1
  Ag  Ag33  1  0.95684512  0.29289303  0.39801257  1
  Ag  Ag34  1  0.91273862  0.25959961  0.59568108  1
  Ag  Ag35  1  0.02521838  0.21595128  0.87964755  1
  Ag  Ag36  1  0.54736292  0.21447240  0.17315782  1
  Ag  Ag37  1  0.48925508  0.28386025  0.38783536  1
  Ag  Ag38  1  0.61661274  0.15346855  0.59391947  1
  Ag  Ag39  1  0.59606134  0.20420544  0.92989312  1
  Ag  Ag40  1  0.17620589  0.56916042  0.04062763  1
  Ag  Ag41  1  0.19984613  0.50079122  0.38674840  1
  Ag  Ag42  1  0.22427361  0.46593087  0.63555292  1
  Ag  Ag43  1  0.25069176  0.54502742  0.84878108  1
  Ag  Ag44  1  0.06878699  0.70533450  0.12586551  1
  Ag  Ag45  1  0.00303592  0.77744604  0.35620760  1
  Ag  Ag46  1  0.90222230  0.81135733  0.62520013  1
  Ag  Ag47  1  0.05816097  0.76121617  0.92578002  1
  Ag  Ag48  1  0.73068268  0.49297471  0.11028135  1
  Ag  Ag49  1  0.76227378  0.50521527  0.35821688  1
  Ag  Ag50  1  0.66884461  0.59235300  0.62661018  1
  Ag  Ag51  1  0.70395779  0.44123764  0.90808012  1
  Ag  Ag52  1  0.53302549  0.71628002  0.12555833  1
  Ag  Ag53  1  0.49862627  0.78590261  0.36338662  1
  Ag  Ag54  1  0.53475718  0.67526069  0.53415727  1
  Ag  Ag55  1  0.48640552  0.83305138  0.89362866  1
  Ag  Ag56  1  0.16830703  0.12161839  0.17420447  1
  Ag  Ag57  1  0.13568130  0.98586810  0.37640801  1
  Ag  Ag58  1  0.12115087  0.03498800  0.59472756  1
  Ag  Ag59  1  0.26384968  0.99058750  0.85512889  1
  Ag  Ag60  1  0.63676304  0.99489868  0.13500734  1
  Ag  Ag61  1  0.61849567  0.94846565  0.33669736  1
  Ag  Ag62  1  0.86036513  0.98908290  0.68018429  1
  Ag  Ag63  1  0.75249622  0.97825538  0.89382798  1
  Cl  Cl64  1  0.99172881  0.20399726  0.00701327  1
  Cl  Cl65  1  0.92385703  0.29296404  0.16128000  1
  Cl  Cl66  1  0.00914452  0.34902973  0.51017622  1
  Cl  Cl67  1  0.07695964  0.15869484  0.76624608  1
  Cl  Cl68  1  0.58334816  0.15078846  0.05277257  1
  Cl  Cl69  1  0.47674981  0.32567857  0.26710324  1
  Cl  Cl70  1  0.51995024  0.24857293  0.51260698  1
  Cl  Cl71  1  0.55845681  0.22753021  0.71394312  1
  Cl  Cl72  1  0.32788818  0.51878108  0.96944793  1
  Cl  Cl73  1  0.29941928  0.45345031  0.29517747  1
  Cl  Cl74  1  0.27033668  0.42482331  0.51355974  1
  Cl  Cl75  1  0.25166379  0.59204551  0.72672344  1
  Cl  Cl76  1  0.10894262  0.84268191  0.03584160  1
  Cl  Cl77  1  0.96611309  0.77803596  0.22521000  1
  Cl  Cl78  1  0.91562621  0.87375393  0.50802319  1
  Cl  Cl79  1  0.00569419  0.63541166  0.76894866  1
  Cl  Cl80  1  0.81271818  0.39892442  0.00936659  1
  Cl  Cl81  1  0.86705654  0.55302638  0.17945130  1
  Cl  Cl82  1  0.81599419  0.47151069  0.47347997  1
  Cl  Cl83  1  0.78200434  0.54124242  0.72628156  1
  Cl  Cl84  1  0.45089937  0.75024786  0.00659371  1
  Cl  Cl85  1  0.47058222  0.81181956  0.23784744  1
  Cl  Cl86  1  0.37051631  0.74836751  0.48870719  1
  Cl  Cl87  1  0.45281107  0.87605046  0.77229796  1
  Cl  Cl88  1  0.22015105  0.04819034  0.06283269  1
  Cl  Cl89  1  0.24612171  0.86740575  0.19711839  1
  Cl  Cl90  1  0.23271472  0.94994500  0.51654456  1
  Cl  Cl91  1  0.32322789  0.08178453  0.75873940  1
  Cl  Cl92  1  0.80851938  0.06920784  0.99507071  1
  Cl  Cl93  1  0.73260211  0.85796934  0.25772095  1
  Cl  Cl94  1  0.71919381  0.97260259  0.43584688  1
  Cl  Cl95  1  0.68607344  0.03438444  0.67265077  1
  Cl  Cl96  1  0.00991796  0.05357053  0.14955697  1
  Cl  Cl97  1  0.06991798  0.11305869  0.45215301  1
  Cl  Cl98  1  0.18978192  0.20036217  0.60492532  1
  Cl  Cl99  1  0.10709409  0.04555796  0.91405465  1
  Cl  Cl100  1  0.56101813  0.06178599  0.24955641  1
  Cl  Cl101  1  0.67775279  0.32514448  0.35271246  1
  Cl  Cl102  1  0.76829149  0.20036782  0.51821061  1
  Cl  Cl103  1  0.61356567  0.06015456  0.83731176  1
  Cl  Cl104  1  0.30322009  0.28372945  0.04151170  1
  Cl  Cl105  1  0.33064014  0.20750416  0.41053123  1
  Cl  Cl106  1  0.35717465  0.35920563  0.67589020  1
  Cl  Cl107  1  0.53395838  0.40100894  0.96841906  1
  Cl  Cl108  1  0.13096448  0.59777296  0.22169330  1
  Cl  Cl109  1  0.10056853  0.60174985  0.45232396  1
  Cl  Cl110  1  0.05869459  0.70239938  0.59404769  1
  Cl  Cl111  1  0.10913166  0.59546358  0.92056555  1
  Cl  Cl112  1  0.06269768  0.44381926  0.06534742  1
  Cl  Cl113  1  0.91034148  0.41554301  0.30721912  1
  Cl  Cl114  1  0.85320683  0.30151321  0.70722278  1
  Cl  Cl115  1  0.97762752  0.38934381  0.86723222  1
  Cl  Cl116  1  0.66045672  0.61077984  0.03325750  1
  Cl  Cl117  1  0.66005210  0.57195611  0.27266984  1
  Cl  Cl118  1  0.60462249  0.71657388  0.70351011  1
  Cl  Cl119  1  0.61532006  0.56269487  0.84848815  1
  Cl  Cl120  1  0.44143508  0.96093305  0.10896384  1
  Cl  Cl121  1  0.44073452  0.95583575  0.38461833  1
  Cl  Cl122  1  0.28524574  0.79515723  0.64415171  1
  Cl  Cl123  1  0.36790316  0.95475686  0.95051347  1
  Cl  Cl124  1  0.87555377  0.88343909  0.08729253  1
  Cl  Cl125  1  0.95042282  0.95686800  0.34195163  1
  Cl  Cl126  1  0.84839451  0.82737751  0.74108226  1
  Cl  Cl127  1  0.92423941  0.87929540  0.91446924  1
  Cl  Cl128  1  0.77627677  0.10626888  0.17895983  1
  Cl  Cl129  1  0.86073009  0.16540697  0.35127367  1
  Cl  Cl130  1  0.94177895  0.08050702  0.59262597  1
  Cl  Cl131  1  0.86377350  0.06620405  0.80273662  1
  Cl  Cl132  1  0.36898899  0.16291621  0.17746698  1
  Cl  Cl133  1  0.23047034  0.07536224  0.28989127  1
  Cl  Cl134  1  0.44741389  0.05024787  0.60330099  1
  Cl  Cl135  1  0.42100367  0.17748113  0.90941887  1
  Cl  Cl136  1  0.15937400  0.30648784  0.19170985  1
  Cl  Cl137  1  0.13165218  0.32315362  0.35973663  1
  Cl  Cl138  1  0.04617562  0.46311179  0.64421462  1
  Cl  Cl139  1  0.23852824  0.35505912  0.83385010  1
  Cl  Cl140  1  0.93702451  0.66245556  0.04442253  1
  Cl  Cl141  1  0.85575099  0.69131960  0.38451957  1
  Cl  Cl142  1  0.81448829  0.66536063  0.56642652  1
  Cl  Cl143  1  0.83705824  0.62933690  0.90124589  1
  Cl  Cl144  1  0.68558573  0.33009529  0.15470380  1
  Cl  Cl145  1  0.51585758  0.46310615  0.43882391  1
  Cl  Cl146  1  0.62860574  0.42661804  0.59911258  1
  Cl  Cl147  1  0.73625508  0.27243965  0.87554067  1
  Cl  Cl148  1  0.45131891  0.57945018  0.18068511  1
  Cl  Cl149  1  0.37435817  0.65095151  0.34480724  1
  Cl  Cl150  1  0.43777149  0.58477278  0.61235842  1
  Cl  Cl151  1  0.40279656  0.66303768  0.84609227  1
  Cl  Cl152  1  0.27135643  0.68561865  0.09564094  1
  Cl  Cl153  1  0.16834796  0.81173814  0.37978366  1
  Cl  Cl154  1  0.06644709  0.91727139  0.68604826  1
  Cl  Cl155  1  0.16229458  0.83654118  0.82902356  1
  Cl  Cl156  1  0.65429637  0.83366419  0.08955585  1
  Cl  Cl157  1  0.61728753  0.68807032  0.42236717  1
  Cl  Cl158  1  0.59176611  0.84730295  0.55205049  1
  Cl  Cl159  1  0.67454200  0.81370844  0.89701605  1
