# generated using pymatgen
data_CaInI3
_symmetry_space_group_name_H-M   'P 1'
_cell_length_a   17.49061009
_cell_length_b   17.49061009
_cell_length_c   24.73545800
_cell_angle_alpha   90.00000000
_cell_angle_beta   90.00000000
_cell_angle_gamma   90.00000000
_symmetry_Int_Tables_number   1
_chemical_formula_structural   CaInI3
_chemical_formula_sum   'Ca32 In32 I96'
_cell_volume   7567.10696096
_cell_formula_units_Z   32
loop_
 _symmetry_equiv_pos_site_id
 _symmetry_equiv_pos_as_xyz
  1  'x, y, z'
loop_
 _atom_site_type_symbol
 _atom_site_label
 _atom_site_symmetry_multiplicity
 _atom_site_fract_x
 _atom_site_fract_y
 _atom_site_fract_z
 _atom_site_occupancy
  Ca  Ca0  1  0.99189576  0.04360106  0.06408005  1
  Ca  Ca1  1  0.86175690  0.93715164  0.36297175  1
  Ca  Ca2  1  0.04490712  0.03164045  0.46491684  1
  Ca  Ca3  1  0.05752084  0.05125153  0.74976981  1
  Ca  Ca4  1  0.51152174  0.90679746  0.97871212  1
  Ca  Ca5  1  0.42487376  0.92388986  0.30893612  1
  Ca  Ca6  1  0.54325372  0.88528190  0.48003195  1
  Ca  Ca7  1  0.54649405  0.06395095  0.84768962  1
  Ca  Ca8  1  0.11545469  0.53474092  0.93929049  1
  Ca  Ca9  1  0.36690195  0.12010056  0.23802958  1
  Ca  Ca10  1  0.21815205  0.18627016  0.54893226  1
  Ca  Ca11  1  0.19448424  0.26903112  0.70095630  1
  Ca  Ca12  1  0.97550001  0.39824658  0.03772801  1
  Ca  Ca13  1  0.97225822  0.44655561  0.22807493  1
  Ca  Ca14  1  0.99829299  0.69444707  0.49886987  1
  Ca  Ca15  1  0.01875193  0.58537052  0.73728058  1
  Ca  Ca16  1  0.78093547  0.20390121  0.99065101  1
  Ca  Ca17  1  0.80657409  0.28305993  0.16503922  1
  Ca  Ca18  1  0.74206744  0.19157512  0.50906878  1
  Ca  Ca19  1  0.74481657  0.17264860  0.74132211  1
  Ca  Ca20  1  0.52414332  0.43105523  0.97905939  1
  Ca  Ca21  1  0.48448938  0.40382633  0.20043818  1
  Ca  Ca22  1  0.49764467  0.38607453  0.51637903  1
  Ca  Ca23  1  0.39727826  0.45061046  0.83482970  1
  Ca  Ca24  1  0.38236827  0.72025086  0.00534781  1
  Ca  Ca25  1  0.36710296  0.62037009  0.22592701  1
  Ca  Ca26  1  0.22873087  0.83884643  0.50109793  1
  Ca  Ca27  1  0.11329572  0.80659692  0.68775684  1
  Ca  Ca28  1  0.81963072  0.88129957  0.03406892  1
  Ca  Ca29  1  0.86409884  0.65141465  0.33846053  1
  Ca  Ca30  1  0.68008786  0.66133883  0.50944418  1
  Ca  Ca31  1  0.69045716  0.70218388  0.72592687  1
  In  In32  1  0.16202920  0.20858343  0.13484375  1
  In  In33  1  0.94534571  0.36988716  0.38436259  1
  In  In34  1  0.91752251  0.26949278  0.65222064  1
  In  In35  1  0.01033398  0.33001423  0.84602149  1
  In  In36  1  0.51990998  0.18449320  0.08184490  1
  In  In37  1  0.51435269  0.22622939  0.39671986  1
  In  In38  1  0.49354452  0.13046897  0.58893502  1
  In  In39  1  0.52046179  0.24874592  0.86996729  1
  In  In40  1  0.24074740  0.52439356  0.10480468  1
  In  In41  1  0.29153619  0.49282428  0.44399648  1
  In  In42  1  0.27750527  0.49623773  0.67747307  1
  In  In43  1  0.30173122  0.66974317  0.84570073  1
  In  In44  1  0.94970400  0.80523410  0.16598786  1
  In  In45  1  0.13190202  0.61527734  0.31650756  1
  In  In46  1  0.88887706  0.77463386  0.64938647  1
  In  In47  1  0.00904402  0.79024662  0.90872209  1
  In  In48  1  0.69510618  0.55513759  0.14570078  1
  In  In49  1  0.64757413  0.44781447  0.35609392  1
  In  In50  1  0.75579944  0.44708707  0.59920519  1
  In  In51  1  0.77833961  0.48676012  0.82725979  1
  In  In52  1  0.56934761  0.77211881  0.11528625  1
  In  In53  1  0.50363510  0.69581128  0.35641069  1
  In  In54  1  0.44992394  0.68266772  0.62751190  1
  In  In55  1  0.50552353  0.73385392  0.84619662  1
  In  In56  1  0.22468017  0.97407701  0.10307755  1
  In  In57  1  0.19839151  0.08357848  0.34628981  1
  In  In58  1  0.36547754  0.97021598  0.70589574  1
  In  In59  1  0.21823089  0.02225594  0.88637525  1
  In  In60  1  0.70333848  0.91117916  0.19986809  1
  In  In61  1  0.60801027  0.08485522  0.33620333  1
  In  In62  1  0.63316713  0.93739421  0.64436730  1
  In  In63  1  0.83182628  0.96373689  0.84736560  1
  I  I64  1  0.11181389  0.36113558  0.96270296  1
  I  I65  1  0.92566956  0.27447959  0.25339020  1
  I  I66  1  0.09192671  0.20103222  0.45837975  1
  I  I67  1  0.76055166  0.34383177  0.72866272  1
  I  I68  1  0.61672644  0.27775340  0.98166430  1
  I  I69  1  0.48410300  0.25090263  0.26039583  1
  I  I70  1  0.38554973  0.24097108  0.50678195  1
  I  I71  1  0.37843567  0.07466793  0.81543080  1
  I  I72  1  0.21165001  0.67414559  0.97851005  1
  I  I73  1  0.31653435  0.44919005  0.21627354  1
  I  I74  1  0.39234251  0.50754912  0.56343789  1
  I  I75  1  0.06881385  0.40614449  0.72130597  1
  I  I76  1  0.00417472  0.86801707  0.03492062  1
  I  I77  1  0.82769556  0.81045321  0.27526618  1
  I  I78  1  0.05337822  0.86763847  0.51983091  1
  I  I79  1  0.98005268  0.75556016  0.76827894  1
  I  I80  1  0.65847613  0.51847072  0.02441039  1
  I  I81  1  0.97224816  0.62758598  0.23656068  1
  I  I82  1  0.64508496  0.48252532  0.49065531  1
  I  I83  1  0.83672492  0.58493274  0.71504438  1
  I  I84  1  0.56002610  0.73563666  0.98481863  1
  I  I85  1  0.44759083  0.77986315  0.23900784  1
  I  I86  1  0.50935569  0.70759968  0.49546896  1
  I  I87  1  0.53958182  0.80080564  0.71645642  1
  I  I88  1  0.14079178  0.09141357  0.00818339  1
  I  I89  1  0.27332820  0.96484808  0.24972828  1
  I  I90  1  0.22272116  0.01899176  0.49714981  1
  I  I91  1  0.19605342  0.93323410  0.75767084  1
  I  I92  1  0.85865683  0.04461475  0.97503002  1
  I  I93  1  0.77170861  0.04516696  0.28830700  1
  I  I94  1  0.69840517  0.83815438  0.53452818  1
  I  I95  1  0.58484220  0.10015598  0.72655886  1
  I  I96  1  0.33374361  0.12609234  0.11548573  1
  I  I97  1  0.22544326  0.21877147  0.26224526  1
  I  I98  1  0.08065365  0.15457472  0.63982387  1
  I  I99  1  0.15099140  0.18246433  0.80835131  1
  I  I100  1  0.71397868  0.16171463  0.10505235  1
  I  I101  1  0.51698132  0.01821205  0.22193331  1
  I  I102  1  0.60824952  0.06917102  0.48359111  1
  I  I103  1  0.71111598  0.14208993  0.86690289  1
  I  I104  1  0.44560617  0.36594387  0.08323534  1
  I  I105  1  0.45327816  0.41552471  0.39824389  1
  I  I106  1  0.34991088  0.34325478  0.73953314  1
  I  I107  1  0.38461966  0.32888359  0.92712014  1
  I  I108  1  0.20507702  0.66110197  0.18806730  1
  I  I109  1  0.17385895  0.67987299  0.46719348  1
  I  I110  1  0.05127822  0.65960017  0.61853348  1
  I  I111  1  0.18386618  0.66105431  0.74344609  1
  I  I112  1  0.85523915  0.44543571  0.12692800  1
  I  I113  1  0.82804964  0.47781230  0.30692588  1
  I  I114  1  0.86195422  0.32077200  0.52700221  1
  I  I115  1  0.85723786  0.34959176  0.94386484  1
  I  I116  1  0.53642507  0.55727402  0.25022284  1
  I  I117  1  0.69594688  0.64843597  0.38154652  1
  I  I118  1  0.62676890  0.60941372  0.62988986  1
  I  I119  1  0.66648610  0.64086856  0.83774726  1
  I  I120  1  0.41121076  0.86328222  0.08093516  1
  I  I121  1  0.36968034  0.85258838  0.42007419  1
  I  I122  1  0.26395631  0.80815692  0.61886119  1
  I  I123  1  0.36150021  0.85093973  0.91745795  1
  I  I124  1  0.85955008  0.97607681  0.14031469  1
  I  I125  1  0.88122115  0.78492716  0.42790406  1
  I  I126  1  0.76744506  0.85991912  0.72883863  1
  I  I127  1  0.82667436  0.80722286  0.92031929  1
  I  I128  1  0.93154279  0.22449501  0.07551740  1
  I  I129  1  0.86633981  0.05089923  0.46346181  1
  I  I130  1  0.79171998  0.12309374  0.62457551  1
  I  I131  1  0.91385406  0.15290904  0.77530789  1
  I  I132  1  0.64992622  0.93489599  0.05731475  1
  I  I133  1  0.39165706  0.08255534  0.36517505  1
  I  I134  1  0.30952479  0.13936084  0.65302266  1
  I  I135  1  0.48249753  0.07989373  0.96609770  1
  I  I136  1  0.08881570  0.40549366  0.13730965  1
  I  I137  1  0.09820123  0.42823461  0.31349494  1
  I  I138  1  0.20100685  0.35082599  0.58897904  1
  I  I139  1  0.22703214  0.49446704  0.84667481  1
  I  I140  1  0.99500437  0.57157151  0.02234738  1
  I  I141  1  0.98131055  0.56909830  0.41335837  1
  I  I142  1  0.84326341  0.61819525  0.54588282  1
  I  I143  1  0.98159302  0.53280090  0.85454449  1
  I  I144  1  0.66177421  0.37447314  0.19787277  1
  I  I145  1  0.70753234  0.26306956  0.39630298  1
  I  I146  1  0.61579143  0.28523512  0.57744146  1
  I  I147  1  0.57377976  0.41824825  0.84970316  1
  I  I148  1  0.42357439  0.61671715  0.10366403  1
  I  I149  1  0.32962088  0.61893068  0.34917208  1
  I  I150  1  0.42128960  0.58235102  0.75199836  1
  I  I151  1  0.42539230  0.56812450  0.93257670  1
  I  I152  1  0.08065074  0.04557158  0.17105585  1
  I  I153  1  0.03369534  0.96129556  0.35147597  1
  I  I154  1  0.99218806  0.93694521  0.66606758  1
  I  I155  1  0.02221389  0.97010695  0.86188944  1
  I  I156  1  0.79289822  0.74351697  0.10941840  1
  I  I157  1  0.59159075  0.89307925  0.35936395  1
  I  I158  1  0.45602806  0.93783226  0.57818956  1
  I  I159  1  0.60566828  0.90422109  0.86968343  1
