# generated using pymatgen
data_CdAgCl3
_symmetry_space_group_name_H-M   'P 1'
_cell_length_a   14.64988072
_cell_length_b   14.64988072
_cell_length_c   20.71805900
_cell_angle_alpha   90.00000000
_cell_angle_beta   90.00000000
_cell_angle_gamma   90.00000000
_symmetry_Int_Tables_number   1
_chemical_formula_structural   CdAgCl3
_chemical_formula_sum   'Cd32 Ag32 Cl96'
_cell_volume   4446.48920981
_cell_formula_units_Z   32
loop_
 _symmetry_equiv_pos_site_id
 _symmetry_equiv_pos_as_xyz
  1  'x, y, z'
loop_
 _atom_site_type_symbol
 _atom_site_label
 _atom_site_symmetry_multiplicity
 _atom_site_fract_x
 _atom_site_fract_y
 _atom_site_fract_z
 _atom_site_occupancy
  Ag  Ag0  1  0.02899170  0.01349553  0.88676120  1
  Ag  Ag1  1  0.97268864  0.03006365  0.16986073  1
  Ag  Ag2  1  0.96787469  0.03694589  0.47255533  1
  Ag  Ag3  1  0.12296602  0.07020840  0.74733487  1
  Ag  Ag4  1  0.43744856  0.12859192  0.98967800  1
  Ag  Ag5  1  0.48933268  0.94475843  0.14267015  1
  Ag  Ag6  1  0.52123244  0.02199104  0.52516196  1
  Ag  Ag7  1  0.52084104  0.02149109  0.76561758  1
  Ag  Ag8  1  0.26962937  0.31417668  0.01165050  1
  Ag  Ag9  1  0.16414658  0.20365618  0.30022999  1
  Ag  Ag10  1  0.25524038  0.16039525  0.48742392  1
  Ag  Ag11  1  0.24930015  0.36038851  0.76864167  1
  Ag  Ag12  1  0.00177060  0.51368783  0.00358062  1
  Ag  Ag13  1  0.99370399  0.51923945  0.26529484  1
  Ag  Ag14  1  -0.00021593  0.51287978  0.55888141  1
  Ag  Ag15  1  0.07664199  0.57950111  0.75988926  1
  Ag  Ag16  1  0.77393949  0.25817187  0.05690431  1
  Ag  Ag17  1  0.69656107  0.11869891  0.23444266  1
  Ag  Ag18  1  0.71071553  0.22590501  0.41021415  1
  Ag  Ag19  1  0.77364313  0.20641265  0.79568646  1
  Ag  Ag20  1  0.50455683  0.48122530  0.01074068  1
  Ag  Ag21  1  0.50848067  0.51868661  0.25501666  1
  Ag  Ag22  1  0.47347670  0.58827978  0.50009118  1
  Ag  Ag23  1  0.51176162  0.50309713  0.71925431  1
  Ag  Ag24  1  0.13113895  0.90474978  0.00007145  1
  Ag  Ag25  1  0.21736969  0.72953476  0.27858245  1
  Ag  Ag26  1  0.25412523  0.79515191  0.49598528  1
  Ag  Ag27  1  0.31707734  0.67105612  0.69941874  1
  Ag  Ag28  1  0.69451255  0.73548000  0.98138658  1
  Ag  Ag29  1  0.68537577  0.72329687  0.21622305  1
  Ag  Ag30  1  0.77470311  0.66682898  0.54010652  1
  Ag  Ag31  1  0.84196676  0.66812208  0.73189154  1
  Cd  Cd32  1  0.01314228  0.30158093  0.12688240  1
  Cd  Cd33  1  0.98238172  0.31192957  0.41347850  1
  Cd  Cd34  1  0.98573744  0.20660090  0.62624422  1
  Cd  Cd35  1  0.99620942  0.29829217  0.88197332  1
  Cd  Cd36  1  0.49247824  0.28869377  0.16271165  1
  Cd  Cd37  1  0.47644848  0.30039555  0.40137696  1
  Cd  Cd38  1  0.53045495  0.26115062  0.61099717  1
  Cd  Cd39  1  0.49092841  0.28451573  0.86171912  1
  Cd  Cd40  1  0.24691365  0.51184285  0.15325615  1
  Cd  Cd41  1  0.24489971  0.51447142  0.38971515  1
  Cd  Cd42  1  0.27390120  0.42636897  0.58772579  1
  Cd  Cd43  1  0.24303523  0.53295476  0.91298710  1
  Cd  Cd44  1  0.98892013  0.71627865  0.13924492  1
  Cd  Cd45  1  0.96399004  0.74119067  0.37742441  1
  Cd  Cd46  1  0.02532392  0.75803988  0.59932282  1
  Cd  Cd47  1  0.96693655  0.72837126  0.90328238  1
  Cd  Cd48  1  0.75077371  0.49239585  0.12038335  1
  Cd  Cd49  1  0.73189626  0.52007561  0.36971812  1
  Cd  Cd50  1  0.78841253  0.44174040  0.66315510  1
  Cd  Cd51  1  0.73601463  0.48304339  0.88275748  1
  Cd  Cd52  1  0.44115472  0.73568011  0.10676051  1
  Cd  Cd53  1  0.47947529  0.75971044  0.36055150  1
  Cd  Cd54  1  0.52165991  0.82049764  0.58492048  1
  Cd  Cd55  1  0.48801868  0.72145068  0.87522862  1
  Cd  Cd56  1  0.25350774  0.07087238  0.12145894  1
  Cd  Cd57  1  0.21538442  0.96798011  0.35810188  1
  Cd  Cd58  1  0.25058362  0.97746299  0.60838049  1
  Cd  Cd59  1  0.29557997  0.98022223  0.87467878  1
  Cd  Cd60  1  0.77244413  0.96478747  0.08260614  1
  Cd  Cd61  1  0.75340370  0.95054225  0.34893549  1
  Cd  Cd62  1  0.72879776  0.00940457  0.64490412  1
  Cd  Cd63  1  0.74444991  0.93256551  0.85055586  1
  Cl  Cl64  1  0.97343785  0.33324122  0.01080681  1
  Cl  Cl65  1  0.02301573  0.18709433  0.21529867  1
  Cl  Cl66  1  -0.00101559  0.32342817  0.53612602  1
  Cl  Cl67  1  0.03476083  0.20799287  0.74154034  1
  Cl  Cl68  1  0.54708613  0.24628503  0.97569243  1
  Cl  Cl69  1  0.51879261  0.33803983  0.28274795  1
  Cl  Cl70  1  0.55702033  0.20194489  0.49197039  1
  Cl  Cl71  1  0.42523015  0.35300464  0.75805419  1
  Cl  Cl72  1  0.18312003  0.48354578  0.02924660  1
  Cl  Cl73  1  0.31995399  0.52405074  0.27154481  1
  Cl  Cl74  1  0.16640227  0.49340528  0.50375373  1
  Cl  Cl75  1  0.24760798  0.54798228  0.78825589  1
  Cl  Cl76  1  0.03402875  0.74637183  0.01765538  1
  Cl  Cl77  1  0.91994342  0.68830765  0.26085314  1
  Cl  Cl78  1  0.01313542  0.67645418  0.48802150  1
  Cl  Cl79  1  0.98008335  0.74198321  0.78237239  1
  Cl  Cl80  1  0.74090282  0.41381727  0.00378574  1
  Cl  Cl81  1  0.70258512  0.53641522  0.24974010  1
  Cl  Cl82  1  0.81272460  0.49201238  0.54632518  1
  Cl  Cl83  1  0.72112546  0.55029568  0.75080155  1
  Cl  Cl84  1  0.51943945  0.77820415  0.00341460  1
  Cl  Cl85  1  0.49756683  0.69454499  0.22037339  1
  Cl  Cl86  1  0.51920533  0.85791319  0.46203077  1
  Cl  Cl87  1  0.47556061  0.66351730  0.75731302  1
  Cl  Cl88  1  0.32958961  0.00669855  0.99938540  1
  Cl  Cl89  1  0.24243977  0.06281777  0.25389864  1
  Cl  Cl90  1  0.30413266  0.96706491  0.46229337  1
  Cl  Cl91  1  0.20915798  0.93537124  0.72380012  1
  Cl  Cl92  1  0.69684060  0.92149689  0.98176604  1
  Cl  Cl93  1  0.84420320  0.03260626  0.26321083  1
  Cl  Cl94  1  0.69340631  0.99183969  0.52935370  1
  Cl  Cl95  1  0.82599481  0.97317155  0.73941745  1
  Cl  Cl96  1  0.16608053  0.20193301  0.06676901  1
  Cl  Cl97  1  0.10304096  0.09098986  0.40443430  1
  Cl  Cl98  1  0.16088570  0.13029208  0.58633282  1
  Cl  Cl99  1  0.17109256  0.10277450  0.87706171  1
  Cl  Cl100  1  0.63822643  0.20156033  0.14005186  1
  Cl  Cl101  1  0.63887544  0.08207171  0.35197423  1
  Cl  Cl102  1  0.61374315  0.14542067  0.67853873  1
  Cl  Cl103  1  0.65886033  0.07947619  0.84350107  1
  Cl  Cl104  1  0.33446708  0.34733664  0.13935048  1
  Cl  Cl105  1  0.38641486  0.43602164  0.44503272  1
  Cl  Cl106  1  0.36428110  0.27691795  0.58388161  1
  Cl  Cl107  1  0.37520288  0.40185454  0.93532518  1
  Cl  Cl108  1  0.15838219  0.67772799  0.16578713  1
  Cl  Cl109  1  0.11312455  0.60772404  0.34262522  1
  Cl  Cl110  1  0.14754373  0.67017219  0.65261723  1
  Cl  Cl111  1  0.06431259  0.57435379  0.89594536  1
  Cl  Cl112  1  0.84172576  0.35221726  0.16360970  1
  Cl  Cl113  1  0.89381063  0.43737521  0.35353143  1
  Cl  Cl114  1  0.82401823  0.27439750  0.68082166  1
  Cl  Cl115  1  0.88947535  0.41944704  0.83919201  1
  Cl  Cl116  1  0.70675239  0.66169554  0.10232931  1
  Cl  Cl117  1  0.54995138  0.60425701  0.38079484  1
  Cl  Cl118  1  0.60021186  0.66902809  0.57079116  1
  Cl  Cl119  1  0.58008111  0.56254613  0.91389850  1
  Cl  Cl120  1  0.34102933  0.86900908  0.13586781  1
  Cl  Cl121  1  0.34565383  0.84228461  0.30917606  1
  Cl  Cl122  1  0.35231804  0.80495023  0.60905956  1
  Cl  Cl123  1  0.42793594  0.88856474  0.83350898  1
  Cl  Cl124  1  0.89361267  0.86391722  0.14100214  1
  Cl  Cl125  1  0.87897836  0.89188653  0.42201950  1
  Cl  Cl126  1  0.85950998  0.77100625  0.62227072  1
  Cl  Cl127  1  0.90463458  0.90075948  0.90475182  1
  Cl  Cl128  1  0.86307066  0.10705210  0.06951702  1
  Cl  Cl129  1  0.87601666  0.18052827  0.40780828  1
  Cl  Cl130  1  0.90976072  0.06308106  0.58733801  1
  Cl  Cl131  1  0.90096891  0.15935357  0.88169325  1
  Cl  Cl132  1  0.41803094  0.11751124  0.14053122  1
  Cl  Cl133  1  0.34394335  0.19376053  0.38739938  1
  Cl  Cl134  1  0.40877601  0.04458585  0.61438212  1
  Cl  Cl135  1  0.40918425  0.13092581  0.83313119  1
  Cl  Cl136  1  0.10095225  0.42480540  0.19226859  1
  Cl  Cl137  1  0.13510580  0.34743006  0.36424998  1
  Cl  Cl138  1  0.15729373  0.37790553  0.66615688  1
  Cl  Cl139  1  0.15896015  0.34309873  0.87687644  1
  Cl  Cl140  1  0.92647753  0.55967833  0.10987053  1
  Cl  Cl141  1  0.79632684  0.66603765  0.41325720  1
  Cl  Cl142  1  0.95230414  0.51910472  0.68012153  1
  Cl  Cl143  1  0.82185276  0.63361029  0.93177973  1
  Cl  Cl144  1  0.57009183  0.44328867  0.12293548  1
  Cl  Cl145  1  0.64951522  0.38871469  0.42265455  1
  Cl  Cl146  1  0.60670309  0.41127615  0.63191510  1
  Cl  Cl147  1  0.65392927  0.33977110  0.82959919  1
  Cl  Cl148  1  0.37816072  0.58065783  0.08505972  1
  Cl  Cl149  1  0.32960035  0.67153375  0.43316990  1
  Cl  Cl150  1  0.38986008  0.54565881  0.61127372  1
  Cl  Cl151  1  0.33556337  0.67662625  0.92825031  1
  Cl  Cl152  1  0.11933662  0.96243614  0.11084751  1
  Cl  Cl153  1  0.09109592  0.85171453  0.32812589  1
  Cl  Cl154  1  0.11653032  0.88766088  0.54784066  1
  Cl  Cl155  1  0.16826885  0.85827108  0.89018410  1
  Cl  Cl156  1  0.65069159  0.94092948  0.16706022  1
  Cl  Cl157  1  0.65199865  0.81868930  0.31667731  1
  Cl  Cl158  1  0.59464689  0.89487287  0.68199349  1
  Cl  Cl159  1  0.66027797  0.78250546  0.84339753  1
