# generated using pymatgen
data_CdAgF3
_symmetry_space_group_name_H-M   'P 1'
_cell_length_a   12.48852682
_cell_length_b   12.48852682
_cell_length_c   17.66144300
_cell_angle_alpha   90.00000000
_cell_angle_beta   90.00000000
_cell_angle_gamma   90.00000000
_symmetry_Int_Tables_number   1
_chemical_formula_structural   CdAgF3
_chemical_formula_sum   'Cd32 Ag32 F96'
_cell_volume   2754.53696982
_cell_formula_units_Z   32
loop_
 _symmetry_equiv_pos_site_id
 _symmetry_equiv_pos_as_xyz
  1  'x, y, z'
loop_
 _atom_site_type_symbol
 _atom_site_label
 _atom_site_symmetry_multiplicity
 _atom_site_fract_x
 _atom_site_fract_y
 _atom_site_fract_z
 _atom_site_occupancy
  Ag  Ag0  1  0.00166409  0.97366200  0.98227925  1
  Ag  Ag1  1  0.00757448  0.98509047  0.25080838  1
  Ag  Ag2  1  0.99690099  0.01606865  0.50003093  1
  Ag  Ag3  1  0.99508840  0.96403106  0.73424164  1
  Ag  Ag4  1  0.49909058  0.97959403  0.98601672  1
  Ag  Ag5  1  0.48743396  0.03871421  0.24489423  1
  Ag  Ag6  1  0.48804907  0.01858701  0.50011666  1
  Ag  Ag7  1  0.49636866  0.03259748  0.76635865  1
  Ag  Ag8  1  0.24588706  0.22196213  0.98484903  1
  Ag  Ag9  1  0.23987742  0.23589458  0.24655912  1
  Ag  Ag10  1  0.26006700  0.26505258  0.49588486  1
  Ag  Ag11  1  0.25351293  0.26707459  0.76615048  1
  Ag  Ag12  1  0.00093751  0.47366179  0.98260686  1
  Ag  Ag13  1  0.00702369  0.48043021  0.25396199  1
  Ag  Ag14  1  0.99603633  0.51561038  0.49534397  1
  Ag  Ag15  1  0.99529767  0.46502959  0.73587405  1
  Ag  Ag16  1  0.74452280  0.29258127  0.01982630  1
  Ag  Ag17  1  0.74624483  0.23652373  0.24452498  1
  Ag  Ag18  1  0.73694325  0.21111781  0.50174727  1
  Ag  Ag19  1  0.75299452  0.20836010  0.73194458  1
  Ag  Ag20  1  0.50475812  0.54222026  0.01902298  1
  Ag  Ag21  1  0.48946432  0.52294699  0.24159313  1
  Ag  Ag22  1  0.49371234  0.51325505  0.49633132  1
  Ag  Ag23  1  0.50163955  0.52481812  0.76426341  1
  Ag  Ag24  1  0.24697472  0.72726491  0.98418732  1
  Ag  Ag25  1  0.23753779  0.73460045  0.25026059  1
  Ag  Ag26  1  0.26274789  0.77085795  0.49901160  1
  Ag  Ag27  1  0.24924503  0.71315014  0.73542722  1
  Ag  Ag28  1  0.74846239  0.78970585  0.01879681  1
  Ag  Ag29  1  0.75231874  0.74267589  0.24670542  1
  Ag  Ag30  1  0.73575802  0.71386821  0.50318523  1
  Ag  Ag31  1  0.75428029  0.70765582  0.73076102  1
  Cd  Cd32  1  -0.00080624  0.26274551  0.12715147  1
  Cd  Cd33  1  0.00069832  0.24856262  0.37677191  1
  Cd  Cd34  1  0.00466907  0.23998153  0.62527492  1
  Cd  Cd35  1  0.99457814  0.24809789  0.87647913  1
  Cd  Cd36  1  0.49690707  0.26689806  0.12501208  1
  Cd  Cd37  1  0.50109782  0.25117523  0.37313361  1
  Cd  Cd38  1  0.49787435  0.24189210  0.62495883  1
  Cd  Cd39  1  0.50376550  0.25554190  0.87709129  1
  Cd  Cd40  1  0.24657177  0.51386203  0.12659079  1
  Cd  Cd41  1  0.24780852  0.49832998  0.37716347  1
  Cd  Cd42  1  0.25111478  0.48875173  0.62414663  1
  Cd  Cd43  1  0.24946607  0.49987653  0.87672917  1
  Cd  Cd44  1  0.00135917  0.76453061  0.12679398  1
  Cd  Cd45  1  0.99936933  0.74942242  0.37737833  1
  Cd  Cd46  1  0.00324884  0.73987246  0.62399205  1
  Cd  Cd47  1  0.99716427  0.74740242  0.87488294  1
  Cd  Cd48  1  0.75351474  0.51546358  0.12684099  1
  Cd  Cd49  1  0.75014260  0.49501505  0.37287934  1
  Cd  Cd50  1  0.75005303  0.48217352  0.62258344  1
  Cd  Cd51  1  0.74916707  0.50195693  0.87541703  1
  Cd  Cd52  1  0.49684587  0.76945954  0.12777304  1
  Cd  Cd53  1  0.49842796  0.74851511  0.37245211  1
  Cd  Cd54  1  0.49808117  0.74054886  0.62434516  1
  Cd  Cd55  1  0.50080607  0.75259191  0.87381997  1
  Cd  Cd56  1  0.24817966  0.01387916  0.12474732  1
  Cd  Cd57  1  0.24902890  0.99715892  0.37702818  1
  Cd  Cd58  1  0.25128019  0.99176408  0.62592441  1
  Cd  Cd59  1  0.24733479  0.99776293  0.87281595  1
  Cd  Cd60  1  0.75175891  0.01406481  0.12639246  1
  Cd  Cd61  1  0.75121776  0.99274020  0.37432194  1
  Cd  Cd62  1  0.74814934  0.98334004  0.62289158  1
  Cd  Cd63  1  0.74995244  0.00100997  0.87544237  1
  F  F64  1  0.05324224  0.26711416  0.00167134  1
  F  F65  1  0.94345782  0.28135442  0.25310725  1
  F  F66  1  0.05769562  0.21813883  0.50140220  1
  F  F67  1  0.94496948  0.25514957  0.75038251  1
  F  F68  1  0.55265482  0.26375227  0.00143062  1
  F  F69  1  0.43980531  0.25784278  0.25013151  1
  F  F70  1  0.55000572  0.22217789  0.49861268  1
  F  F71  1  0.44580656  0.24036168  0.75020178  1
  F  F72  1  0.19429134  0.51198988  0.00127643  1
  F  F73  1  0.29916995  0.53109685  0.25314139  1
  F  F74  1  0.19424508  0.46320892  0.50110476  1
  F  F75  1  0.30557110  0.50340146  0.75143120  1
  F  F76  1  0.05547976  0.76458948  0.00074767  1
  F  F77  1  0.94638813  0.78345554  0.25330899  1
  F  F78  1  0.05449182  0.71312060  0.50110315  1
  F  F79  1  0.94561022  0.75543632  0.74948178  1
  F  F80  1  0.69486147  0.50626239  0.00154024  1
  F  F81  1  0.80736097  0.53032091  0.25088632  1
  F  F82  1  0.69404962  0.49374740  0.49861876  1
  F  F83  1  0.80261381  0.50179700  0.74850718  1
  F  F84  1  0.55252544  0.76201544  0.00071264  1
  F  F85  1  0.43750655  0.75725187  0.24994451  1
  F  F86  1  0.54647360  0.71348405  0.49813292  1
  F  F87  1  0.44509287  0.73156906  0.74966221  1
  F  F88  1  0.19482015  0.01405739  0.99937566  1
  F  F89  1  0.30213935  0.02696652  0.25207173  1
  F  F90  1  0.19518268  0.96517832  0.50106246  1
  F  F91  1  0.30499405  0.00272852  0.75036260  1
  F  F92  1  0.69420581  0.99503966  0.00161261  1
  F  F93  1  0.80872227  0.02410975  0.25132759  1
  F  F94  1  0.69114374  0.99395519  0.49935634  1
  F  F95  1  0.80049733  0.00075599  0.74872729  1
  F  F96  1  0.10940071  0.12614956  0.16179576  1
  F  F97  1  0.09789958  0.09506118  0.34806210  1
  F  F98  1  0.09458051  0.08271358  0.64991892  1
  F  F99  1  0.15579069  0.15915998  0.85766754  1
  F  F100  1  0.60732070  0.12194489  0.15739492  1
  F  F101  1  0.60305356  0.09941505  0.34612355  1
  F  F102  1  0.60027652  0.08934395  0.65425460  1
  F  F103  1  0.64643833  0.14730436  0.84192945  1
  F  F104  1  0.40887646  0.42862309  0.11285591  1
  F  F105  1  0.39997151  0.39756250  0.40543351  1
  F  F106  1  0.39849051  0.38832589  0.59204326  1
  F  F107  1  0.33987760  0.34178787  0.89399671  1
  F  F108  1  0.11149675  0.62860641  0.16192265  1
  F  F109  1  0.09329881  0.59334478  0.34964204  1
  F  F110  1  0.10164592  0.58837402  0.65707670  1
  F  F111  1  0.15843831  0.65827270  0.85383379  1
  F  F112  1  0.90016557  0.41445620  0.09510890  1
  F  F113  1  0.90654506  0.40284702  0.40307036  1
  F  F114  1  0.91265161  0.39772813  0.60178045  1
  F  F115  1  0.85044829  0.35539267  0.91071446  1
  F  F116  1  0.59956587  0.61592693  0.14773982  1
  F  F117  1  0.59620470  0.59490160  0.34385532  1
  F  F118  1  0.60100197  0.58840356  0.65253482  1
  F  F119  1  0.64639609  0.64861537  0.84050996  1
  F  F120  1  0.40557651  0.92374192  0.10212573  1
  F  F121  1  0.39999099  0.89616961  0.40630951  1
  F  F122  1  0.39739451  0.88611342  0.59228466  1
  F  F123  1  0.35037923  0.85214156  0.90524874  1
  F  F124  1  0.90129381  0.91495773  0.09499356  1
  F  F125  1  0.90603951  0.90206272  0.40629606  1
  F  F126  1  0.90962376  0.89682639  0.60208212  1
  F  F127  1  0.85105608  0.85360965  0.90874537  1
  F  F128  1  0.84144324  0.17301106  0.10647038  1
  F  F129  1  0.85536730  0.14304732  0.40726935  1
  F  F130  1  0.85026766  0.14009633  0.60248512  1
  F  F131  1  0.90145713  0.09720186  0.90213317  1
  F  F132  1  0.34286700  0.17105987  0.09846508  1
  F  F133  1  0.35310144  0.14445768  0.40652730  1
  F  F134  1  0.35441200  0.13561340  0.58948095  1
  F  F135  1  0.40243831  0.09965966  0.90100400  1
  F  F136  1  0.13676440  0.37749671  0.16300155  1
  F  F137  1  0.15606329  0.34256499  0.34886751  1
  F  F138  1  0.15458277  0.33867355  0.66041679  1
  F  F139  1  0.09576606  0.40273747  0.84855883  1
  F  F140  1  0.84270845  0.67504860  0.10787750  1
  F  F141  1  0.85032273  0.64634378  0.40541815  1
  F  F142  1  0.85015899  0.63979150  0.60249502  1
  F  F143  1  0.90373003  0.59636982  0.90071157  1
  F  F144  1  0.65336515  0.36267926  0.14952424  1
  F  F145  1  0.65668993  0.34235605  0.34600803  1
  F  F146  1  0.65956355  0.32701457  0.64267765  1
  F  F147  1  0.59623558  0.40659837  0.84750515  1
  F  F148  1  0.35187024  0.66283915  0.09217075  1
  F  F149  1  0.34812373  0.64626844  0.40775740  1
  F  F150  1  0.34523343  0.64197039  0.59837922  1
  F  F151  1  0.40158670  0.60118900  0.90690822  1
  F  F152  1  0.13985134  0.87727675  0.16145171  1
  F  F153  1  0.15493515  0.84278109  0.34952144  1
  F  F154  1  0.15491175  0.83628073  0.65451821  1
  F  F155  1  0.09049048  0.90642585  0.85049875  1
  F  F156  1  0.65431502  0.86013852  0.15141324  1
  F  F157  1  0.65672109  0.83902612  0.34846485  1
  F  F158  1  0.65973401  0.82522396  0.64025167  1
  F  F159  1  0.59033962  0.90991387  0.85345965  1
