# generated using pymatgen
data_CdInI3
_symmetry_space_group_name_H-M   'P 1'
_cell_length_a   16.75994392
_cell_length_b   16.75994392
_cell_length_c   23.70213900
_cell_angle_alpha   90.00000000
_cell_angle_beta   90.00000000
_cell_angle_gamma   90.00000000
_symmetry_Int_Tables_number   1
_chemical_formula_structural   CdInI3
_chemical_formula_sum   'Cd32 In32 I96'
_cell_volume   6657.82940681
_cell_formula_units_Z   32
loop_
 _symmetry_equiv_pos_site_id
 _symmetry_equiv_pos_as_xyz
  1  'x, y, z'
loop_
 _atom_site_type_symbol
 _atom_site_label
 _atom_site_symmetry_multiplicity
 _atom_site_fract_x
 _atom_site_fract_y
 _atom_site_fract_z
 _atom_site_occupancy
  Cd  Cd0  1  0.95501061  0.20599281  0.99397522  1
  Cd  Cd1  1  0.00078752  0.78002082  0.20142867  1
  Cd  Cd2  1  0.19787874  0.97968598  0.49038546  1
  Cd  Cd3  1  0.03300178  0.99160516  0.66404138  1
  Cd  Cd4  1  0.56746338  0.93772806  0.04726775  1
  Cd  Cd5  1  0.62885578  0.96956297  0.26091909  1
  Cd  Cd6  1  0.43473456  0.09397537  0.45899933  1
  Cd  Cd7  1  0.52047748  0.04038899  0.71791192  1
  Cd  Cd8  1  0.31336213  0.25678437  0.90818142  1
  Cd  Cd9  1  0.11279643  0.17751896  0.16000369  1
  Cd  Cd10  1  0.31890568  0.29619573  0.56662648  1
  Cd  Cd11  1  0.13959427  0.30092954  0.80201347  1
  Cd  Cd12  1  0.92197020  0.56067785  0.96396275  1
  Cd  Cd13  1  -0.00084054  0.50089620  0.36457191  1
  Cd  Cd14  1  0.10869516  0.46915486  0.53208912  1
  Cd  Cd15  1  0.13697742  0.65550161  0.67558156  1
  Cd  Cd16  1  0.70814237  0.10810968  0.99120106  1
  Cd  Cd17  1  0.71556479  0.20207040  0.27080013  1
  Cd  Cd18  1  0.74782545  0.26708265  0.37263710  1
  Cd  Cd19  1  0.79145276  0.28637977  0.68269306  1
  Cd  Cd20  1  0.44381188  0.47262931  0.00554535  1
  Cd  Cd21  1  0.44577307  0.40475837  0.25767165  1
  Cd  Cd22  1  0.54368841  0.68132975  0.47114448  1
  Cd  Cd23  1  0.54238744  0.61779980  0.82470530  1
  Cd  Cd24  1  0.25606019  0.66168219  0.05737780  1
  Cd  Cd25  1  0.34371549  0.74927503  0.33678819  1
  Cd  Cd26  1  0.22279863  0.73020731  0.26236824  1
  Cd  Cd27  1  0.18693926  0.81339767  0.88959793  1
  Cd  Cd28  1  0.68103812  0.68523529  0.97737539  1
  Cd  Cd29  1  0.78911671  0.68209135  0.13815489  1
  Cd  Cd30  1  0.71105565  0.80207919  0.57709042  1
  Cd  Cd31  1  0.87573210  0.73897381  0.74040725  1
  In  In32  1  0.92274679  0.34395757  0.17892287  1
  In  In33  1  0.00275984  0.22098949  0.36931333  1
  In  In34  1  0.04561923  0.25815797  0.60595558  1
  In  In35  1  0.89294319  0.40899929  0.88747449  1
  In  In36  1  0.40374865  0.09384033  0.14655865  1
  In  In37  1  0.54548318  0.23620263  0.36191606  1
  In  In38  1  0.52260789  0.25588741  0.67921454  1
  In  In39  1  0.50976010  0.25293947  0.97714748  1
  In  In40  1  0.30807120  0.37707437  0.11456045  1
  In  In41  1  0.27385362  0.49418252  0.35839447  1
  In  In42  1  0.34834099  0.58877912  0.58270922  1
  In  In43  1  0.26176732  0.54212849  0.84993442  1
  In  In44  1  0.00776790  0.67517030  0.04365899  1
  In  In45  1  0.04113721  0.76205913  0.38866635  1
  In  In46  1  0.98275270  0.74927780  0.55058178  1
  In  In47  1  0.94171271  0.75686651  0.91597460  1
  In  In48  1  0.71954391  0.44181723  0.11528162  1
  In  In49  1  0.71734693  0.52160887  0.33531546  1
  In  In50  1  0.75749774  0.49313025  0.55410585  1
  In  In51  1  0.69357890  0.42994100  0.83554157  1
  In  In52  1  0.45875211  0.78587953  0.14591299  1
  In  In53  1  0.56078127  0.84402340  0.31761155  1
  In  In54  1  0.49176935  0.69422732  0.66255620  1
  In  In55  1  0.49593221  0.86256593  0.86230648  1
  In  In56  1  0.17801783  0.94555057  0.06360975  1
  In  In57  1  0.27054413  0.97414856  0.32283939  1
  In  In58  1  0.26960600  0.92430450  0.69821255  1
  In  In59  1  0.27635125  0.04053642  0.95445207  1
  In  In60  1  0.85210608  0.02839506  0.16262472  1
  In  In61  1  0.77601816  0.99186675  0.43619690  1
  In  In62  1  0.73219991  0.93762307  0.71606123  1
  In  In63  1  0.80347767  0.08067802  0.85274349  1
  I  I64  1  0.91425364  0.35493224  0.03508922  1
  I  I65  1  0.97924888  0.14893044  0.23071514  1
  I  I66  1  0.07719731  0.29411053  0.48820312  1
  I  I67  1  0.02673745  0.23140886  0.72796753  1
  I  I68  1  0.32947894  0.20365397  0.03997076  1
  I  I69  1  0.56083686  0.12349451  0.24423123  1
  I  I70  1  0.46142523  0.24759612  0.51157252  1
  I  I71  1  0.58388267  0.27728966  0.78723114  1
  I  I72  1  0.29271775  0.40906799  0.96525415  1
  I  I73  1  0.32777875  0.52313571  0.23338569  1
  I  I74  1  0.27125525  0.42888590  0.49910793  1
  I  I75  1  0.25704469  0.54989373  0.71035517  1
  I  I76  1  0.80468422  0.77159475  0.03461941  1
  I  I77  1  0.09058743  0.63952935  0.21253062  1
  I  I78  1  0.80103358  0.68675586  0.52150382  1
  I  I79  1  0.13621775  0.79468215  0.73812276  1
  I  I80  1  0.71912326  0.52355866  0.98385257  1
  I  I81  1  0.61271988  0.39935235  0.24738444  1
  I  I82  1  0.96008785  0.51206802  0.48421464  1
  I  I83  1  0.60347319  0.52565893  0.73711822  1
  I  I84  1  0.53948575  0.75961208  0.00917636  1
  I  I85  1  0.49472817  0.69683476  0.27244112  1
  I  I86  1  0.54522247  0.81184340  0.55002622  1
  I  I87  1  0.40175145  0.69894796  0.80465783  1
  I  I88  1  0.40097848  0.94550871  0.04566765  1
  I  I89  1  0.08090158  0.86651328  0.28996390  1
  I  I90  1  0.35422655  0.00171363  0.53815349  1
  I  I91  1  0.10976426  0.01981403  0.76225946  1
  I  I92  1  0.67108149  0.94878314  0.95385123  1
  I  I93  1  0.78634290  0.02145932  0.29451468  1
  I  I94  1  0.73938806  0.96712093  0.57041891  1
  I  I95  1  0.80942717  0.12986564  0.72054822  1
  I  I96  1  0.09312815  0.13393493  0.04293496  1
  I  I97  1  0.12447123  0.07395634  0.41066108  1
  I  I98  1  0.21128299  0.18641461  0.61042621  1
  I  I99  1  0.16493597  0.17873780  0.88718276  1
  I  I100  1  0.58211927  0.12309031  0.06899520  1
  I  I101  1  0.59673180  0.06567198  0.42499964  1
  I  I102  1  0.59349274  0.11984958  0.62420081  1
  I  I103  1  0.70550717  0.24631429  0.92688541  1
  I  I104  1  0.36536597  0.26758356  0.21928597  1
  I  I105  1  0.42819126  0.39859275  0.37710154  1
  I  I106  1  0.41319114  0.38126476  0.65108371  1
  I  I107  1  0.30477798  0.34074264  0.79716658  1
  I  I108  1  0.14352914  0.54284413  0.05105646  1
  I  I109  1  0.14590915  0.62214266  0.38645953  1
  I  I110  1  0.16112038  0.63664587  0.55377433  1
  I  I111  1  0.10721299  0.66664088  0.87951384  1
  I  I112  1  0.76895110  0.21758574  0.15655938  1
  I  I113  1  0.86991465  0.39205884  0.31978771  1
  I  I114  1  0.88282450  0.31802094  0.58317953  1
  I  I115  1  0.84521692  0.41237073  0.74945425  1
  I  I116  1  0.64138389  0.61260867  0.15159786  1
  I  I117  1  0.65971119  0.73738145  0.39380449  1
  I  I118  1  0.57074907  0.55355529  0.54564204  1
  I  I119  1  0.66136742  0.72804516  0.85909154  1
  I  I120  1  0.25132160  0.78699618  0.13932579  1
  I  I121  1  0.43294833  0.87529047  0.39791465  1
  I  I122  1  0.50127349  0.87559480  0.71724969  1
  I  I123  1  0.30092277  0.92119534  0.84212574  1
  I  I124  1  0.83414808  0.79063626  0.22440910  1
  I  I125  1  0.92374339  0.87121176  0.43068828  1
  I  I126  1  0.91380318  0.86712002  0.65471982  1
  I  I127  1  0.86096123  0.87631642  0.82011545  1
  I  I128  1  0.86615982  0.06234990  0.01789435  1
  I  I129  1  0.84438290  0.16754080  0.44689097  1
  I  I130  1  0.97787602  0.10016825  0.58176647  1
  I  I131  1  0.94060620  0.22000564  0.87577428  1
  I  I132  1  0.21664330  0.05341759  0.18974494  1
  I  I133  1  0.36105593  0.14078046  0.35921941  1
  I  I134  1  0.39006856  0.14529800  0.71365963  1
  I  I135  1  0.42032638  0.12788870  0.88756594  1
  I  I136  1  0.12553830  0.34224045  0.15568180  1
  I  I137  1  0.11552694  0.38906324  0.33020242  1
  I  I138  1  0.10121201  0.41366436  0.64404673  1
  I  I139  1  0.07693216  0.43972930  0.85136703  1
  I  I140  1  0.90330604  0.55848187  0.12999662  1
  I  I141  1  0.91125014  0.64065218  0.33899284  1
  I  I142  1  0.96597886  0.62495154  0.66610255  1
  I  I143  1  0.87161232  0.62150954  0.82777717  1
  I  I144  1  0.53075888  0.38149525  0.08459610  1
  I  I145  1  0.68331259  0.39605861  0.43980153  1
  I  I146  1  0.65297488  0.34732516  0.62340395  1
  I  I147  1  0.50361141  0.47990302  0.89453117  1
  I  I148  1  0.40755321  0.59096099  0.08560781  1
  I  I149  1  0.38632962  0.64118133  0.43494422  1
  I  I150  1  0.33064360  0.77036500  0.61813730  1
  I  I151  1  0.30976314  0.74774399  0.96308670  1
  I  I152  1  0.00505668  0.88599212  0.10954493  1
  I  I153  1  0.20531446  0.82737594  0.43569755  1
  I  I154  1  0.13434334  0.90182120  0.58726035  1
  I  I155  1  0.07612545  0.91799033  0.93998725  1
  I  I156  1  0.65235106  0.89829554  0.14741457  1
  I  I157  1  0.41205669  0.92942946  0.22964267  1
  I  I158  1  0.71285680  0.73566571  0.69009098  1
  I  I159  1  0.61376935  0.03679203  0.81555773  1
