# generated using pymatgen
data_CsAlCl3
_symmetry_space_group_name_H-M   'P 1'
_cell_length_a   14.66290987
_cell_length_b   14.66290987
_cell_length_c   20.73648600
_cell_angle_alpha   90.00000000
_cell_angle_beta   90.00000000
_cell_angle_gamma   90.00000000
_symmetry_Int_Tables_number   1
_chemical_formula_structural   CsAlCl3
_chemical_formula_sum   'Cs32 Al32 Cl96'
_cell_volume   4458.36368813
_cell_formula_units_Z   32
loop_
 _symmetry_equiv_pos_site_id
 _symmetry_equiv_pos_as_xyz
  1  'x, y, z'
loop_
 _atom_site_type_symbol
 _atom_site_label
 _atom_site_symmetry_multiplicity
 _atom_site_fract_x
 _atom_site_fract_y
 _atom_site_fract_z
 _atom_site_occupancy
  Cs  Cs0  1  0.00149228  0.00396825  -0.00536921  1
  Cs  Cs1  1  -0.00411837  -0.00460900  0.25221700  1
  Cs  Cs2  1  0.00134615  0.00203884  0.50382351  1
  Cs  Cs3  1  -0.00024303  0.00628990  0.75081699  1
  Cs  Cs4  1  0.50490453  -0.00845139  0.00032043  1
  Cs  Cs5  1  0.50192996  -0.00035205  0.25153021  1
  Cs  Cs6  1  0.49992372  0.00971561  0.49712542  1
  Cs  Cs7  1  0.50277925  -0.00051679  0.74986708  1
  Cs  Cs8  1  0.23638506  0.25537154  0.00083067  1
  Cs  Cs9  1  0.24456420  0.24755853  0.25254359  1
  Cs  Cs10  1  0.25432454  0.25403886  0.49983141  1
  Cs  Cs11  1  0.24877989  0.25389728  0.74775819  1
  Cs  Cs12  1  -0.00072483  0.50079455  -0.00135149  1
  Cs  Cs13  1  -0.00235863  0.50218576  0.24943148  1
  Cs  Cs14  1  -0.00179748  0.49649831  0.50432347  1
  Cs  Cs15  1  -0.00153515  0.49982716  0.74857351  1
  Cs  Cs16  1  0.76125724  0.25034427  0.99694849  1
  Cs  Cs17  1  0.76298369  0.25153079  0.25040365  1
  Cs  Cs18  1  0.74665713  0.25903954  0.50058133  1
  Cs  Cs19  1  0.75083567  0.25295099  0.74936157  1
  Cs  Cs20  1  0.49800204  0.50601821  -0.00684227  1
  Cs  Cs21  1  0.50583058  0.50124241  0.25171855  1
  Cs  Cs22  1  0.50357103  0.49751579  0.50463715  1
  Cs  Cs23  1  0.49924337  0.50429713  0.74923147  1
  Cs  Cs24  1  0.24811957  0.74619433  -0.00409317  1
  Cs  Cs25  1  0.24448764  0.74881741  0.25089601  1
  Cs  Cs26  1  0.25209166  0.74886081  0.50358078  1
  Cs  Cs27  1  0.24993341  0.74454919  0.75133488  1
  Cs  Cs28  1  0.74381752  0.74821829  0.00045971  1
  Cs  Cs29  1  0.75030079  0.75012033  0.24822288  1
  Cs  Cs30  1  0.74717229  0.74729412  0.50216541  1
  Cs  Cs31  1  0.75050224  0.74772092  0.75103264  1
  Al  Al32  1  0.00576119  0.24770836  0.12458276  1
  Al  Al33  1  -0.00007389  0.26890485  0.37800239  1
  Al  Al34  1  0.00075308  0.24610724  0.62441266  1
  Al  Al35  1  0.01233393  0.24766909  0.87279082  1
  Al  Al36  1  0.53634524  0.24982930  0.12484650  1
  Al  Al37  1  0.50365239  0.25457880  0.37925435  1
  Al  Al38  1  0.49980817  0.24598210  0.63547807  1
  Al  Al39  1  0.49089310  0.24221813  0.88198001  1
  Al  Al40  1  0.26407439  0.48661811  0.13976276  1
  Al  Al41  1  0.25373538  0.50347022  0.38873374  1
  Al  Al42  1  0.24906627  0.49753689  0.63287890  1
  Al  Al43  1  0.24886106  0.50594581  0.87659875  1
  Al  Al44  1  0.00495779  0.75045291  0.12838340  1
  Al  Al45  1  -0.00117485  0.74912250  0.38241380  1
  Al  Al46  1  0.00002306  0.73810281  0.62948822  1
  Al  Al47  1  -0.01242037  0.75322807  0.87818974  1
  Al  Al48  1  0.76279641  0.50828233  0.12397020  1
  Al  Al49  1  0.74839216  0.50539125  0.37492666  1
  Al  Al50  1  0.75078374  0.49801304  0.62547242  1
  Al  Al51  1  0.74490408  0.48830007  0.87476174  1
  Al  Al52  1  0.49865237  0.74830544  0.12644611  1
  Al  Al53  1  0.49968935  0.77834182  0.37590323  1
  Al  Al54  1  0.50053175  0.75100182  0.62449706  1
  Al  Al55  1  0.50720198  0.75038060  0.87423086  1
  Al  Al56  1  0.26641090  0.01251070  0.11520570  1
  Al  Al57  1  0.23697103  0.01305797  0.37672958  1
  Al  Al58  1  0.24522590  -0.00915242  0.63378646  1
  Al  Al59  1  0.25616458  -0.01075157  0.87389690  1
  Al  Al60  1  0.76353613  -0.01022622  0.12751209  1
  Al  Al61  1  0.76429585  0.01579486  0.37924605  1
  Al  Al62  1  0.75733991  -0.00923136  0.63514437  1
  Al  Al63  1  0.74549932  0.00576532  0.88271474  1
  Cl  Cl64  1  -0.00146699  0.26321997  -0.01962817  1
  Cl  Cl65  1  0.00506012  0.24838061  0.24262795  1
  Cl  Cl66  1  0.00138551  0.24930039  0.50184969  1
  Cl  Cl67  1  -0.00286811  0.26458501  0.76560010  1
  Cl  Cl68  1  0.48261747  0.24615525  0.02681767  1
  Cl  Cl69  1  0.49128539  0.25346496  0.22473262  1
  Cl  Cl70  1  0.50097352  0.25328553  0.49537720  1
  Cl  Cl71  1  0.49838412  0.24483955  0.74574708  1
  Cl  Cl72  1  0.24052054  0.49753131  -0.01341007  1
  Cl  Cl73  1  0.24988908  0.50275718  0.24461832  1
  Cl  Cl74  1  0.25434587  0.50043861  0.49569645  1
  Cl  Cl75  1  0.23951192  0.49606885  0.76433298  1
  Cl  Cl76  1  0.00299852  0.73941358  -0.01141515  1
  Cl  Cl77  1  -0.00168436  0.75485523  0.23586656  1
  Cl  Cl78  1  -0.00000418  0.74678842  0.49971234  1
  Cl  Cl79  1  0.00104155  0.74106586  0.76848521  1
  Cl  Cl80  1  0.75525175  0.49945513  -0.01288424  1
  Cl  Cl81  1  0.75167612  0.50140989  0.26112333  1
  Cl  Cl82  1  0.74814139  0.50231677  0.48722718  1
  Cl  Cl83  1  0.75738140  0.50198831  0.76363453  1
  Cl  Cl84  1  0.49322969  0.75144699  0.00903768  1
  Cl  Cl85  1  0.49560792  0.73655219  0.27506192  1
  Cl  Cl86  1  0.49823440  0.73274374  0.47539932  1
  Cl  Cl87  1  0.50216539  0.75993856  0.74173211  1
  Cl  Cl88  1  0.25377513  0.00399079  0.00974976  1
  Cl  Cl89  1  0.25103768  -0.00732714  0.26849617  1
  Cl  Cl90  1  0.25675117  0.00060886  0.48514136  1
  Cl  Cl91  1  0.25709435  0.00515853  0.74015732  1
  Cl  Cl92  1  0.74980741  -0.00166618  0.00794551  1
  Cl  Cl93  1  0.74866356  0.99699882  0.27202412  1
  Cl  Cl94  1  0.74140542  -0.00061883  0.48531245  1
  Cl  Cl95  1  0.74722599  0.00508962  0.74042195  1
  Cl  Cl96  1  0.14274880  0.08665778  0.13821498  1
  Cl  Cl97  1  0.12811184  0.11889818  0.37611378  1
  Cl  Cl98  1  0.16002186  0.11080756  0.61466300  1
  Cl  Cl99  1  0.12070139  0.14066523  0.87215286  1
  Cl  Cl100  1  0.62497574  0.13071613  0.12659063  1
  Cl  Cl101  1  0.63912690  0.11544481  0.37474732  1
  Cl  Cl102  1  0.60948080  0.13722653  0.62199312  1
  Cl  Cl103  1  0.61797804  0.13049166  0.88154178  1
  Cl  Cl104  1  0.36767999  0.38214756  0.12393775  1
  Cl  Cl105  1  0.36291300  0.39139551  0.37159052  1
  Cl  Cl106  1  0.39087278  0.35554642  0.62432232  1
  Cl  Cl107  1  0.34607909  0.38462299  0.87561395  1
  Cl  Cl108  1  0.10989460  0.63858038  0.11981914  1
  Cl  Cl109  1  0.14094381  0.61207540  0.37434643  1
  Cl  Cl110  1  0.12622992  0.62046319  0.62647072  1
  Cl  Cl111  1  0.12931225  0.60738440  0.87502947  1
  Cl  Cl112  1  0.88596709  0.36868520  0.12319595  1
  Cl  Cl113  1  0.86218356  0.39139071  0.37515239  1
  Cl  Cl114  1  0.88047030  0.36258687  0.62617877  1
  Cl  Cl115  1  0.86800395  0.39491876  0.87490712  1
  Cl  Cl116  1  0.61604656  0.62726488  0.12605237  1
  Cl  Cl117  1  0.63690380  0.61457993  0.37317739  1
  Cl  Cl118  1  0.62062071  0.63358009  0.62513909  1
  Cl  Cl119  1  0.65343695  0.61277348  0.87518041  1
  Cl  Cl120  1  0.34243906  0.88891504  0.13679717  1
  Cl  Cl121  1  0.38011086  0.86897289  0.37695443  1
  Cl  Cl122  1  0.36663268  0.90744927  0.61365368  1
  Cl  Cl123  1  0.37785012  0.87110029  0.87415024  1
  Cl  Cl124  1  0.89373429  0.85872810  0.11050659  1
  Cl  Cl125  1  0.85934160  0.88837676  0.38061754  1
  Cl  Cl126  1  0.86424741  0.88655479  0.62295316  1
  Cl  Cl127  1  0.88231591  0.86338100  0.87792324  1
  Cl  Cl128  1  0.88723781  0.12700907  0.12223871  1
  Cl  Cl129  1  0.87328101  0.12164384  0.37933846  1
  Cl  Cl130  1  0.83877732  0.11155195  0.61254036  1
  Cl  Cl131  1  0.89013515  0.14942964  0.87202459  1
  Cl  Cl132  1  0.36864249  0.11779121  0.13334142  1
  Cl  Cl133  1  0.36094960  0.10989334  0.37255510  1
  Cl  Cl134  1  0.39006175  0.13633956  0.62133520  1
  Cl  Cl135  1  0.37157660  0.11827510  0.87636100  1
  Cl  Cl136  1  0.14147304  0.40846017  0.11950279  1
  Cl  Cl137  1  0.14415228  0.39385273  0.37184134  1
  Cl  Cl138  1  0.12032274  0.36376154  0.62567891  1
  Cl  Cl139  1  0.11216376  0.37502095  0.87386367  1
  Cl  Cl140  1  0.88991608  0.64076620  0.11847286  1
  Cl  Cl141  1  0.86402348  0.61765222  0.37444680  1
  Cl  Cl142  1  0.87307736  0.62135976  0.62561672  1
  Cl  Cl143  1  0.89080988  0.63092554  0.87841787  1
  Cl  Cl144  1  0.62250992  0.37072901  0.12018578  1
  Cl  Cl145  1  0.63525203  0.38719524  0.37274598  1
  Cl  Cl146  1  0.60885523  0.35633373  0.62661353  1
  Cl  Cl147  1  0.63507557  0.38282334  0.87461281  1
  Cl  Cl148  1  0.33976073  0.60953582  0.11698513  1
  Cl  Cl149  1  0.36073110  0.61065581  0.37097760  1
  Cl  Cl150  1  0.38073272  0.63439472  0.62622098  1
  Cl  Cl151  1  0.35942422  0.61289089  0.87369142  1
  Cl  Cl152  1  0.11272015  0.85881996  0.11361475  1
  Cl  Cl153  1  0.14332218  0.88711413  0.37971501  1
  Cl  Cl154  1  0.13824293  0.88575569  0.62420643  1
  Cl  Cl155  1  0.11147860  0.84759728  0.87753540  1
  Cl  Cl156  1  0.61355633  0.86915164  0.13040439  1
  Cl  Cl157  1  0.61869015  0.86863065  0.37594574  1
  Cl  Cl158  1  0.63575159  0.90874269  0.61380282  1
  Cl  Cl159  1  0.62817839  0.87805373  0.87647551  1
