# generated using pymatgen
data_CsBaI3
_symmetry_space_group_name_H-M   'P 1'
_cell_length_a   19.18386354
_cell_length_b   19.18386354
_cell_length_c   27.13008100
_cell_angle_alpha   90.00000000
_cell_angle_beta   90.00000000
_cell_angle_gamma   90.00000000
_symmetry_Int_Tables_number   1
_chemical_formula_structural   CsBaI3
_chemical_formula_sum   'Cs32 Ba32 I96'
_cell_volume   9984.42924121
_cell_formula_units_Z   32
loop_
 _symmetry_equiv_pos_site_id
 _symmetry_equiv_pos_as_xyz
  1  'x, y, z'
loop_
 _atom_site_type_symbol
 _atom_site_label
 _atom_site_symmetry_multiplicity
 _atom_site_fract_x
 _atom_site_fract_y
 _atom_site_fract_z
 _atom_site_occupancy
  Ba  Ba0  1  0.00901257  0.00230577  0.00253613  1
  Ba  Ba1  1  0.00159986  0.00349770  0.24867943  1
  Ba  Ba2  1  0.99032792  0.99871799  0.50190067  1
  Ba  Ba3  1  0.99117103  0.00177640  0.74714066  1
  Ba  Ba4  1  0.50519235  0.00131745  0.99880007  1
  Ba  Ba5  1  0.50597489  0.00126833  0.24958892  1
  Ba  Ba6  1  0.49018227  0.99782603  0.50141574  1
  Ba  Ba7  1  0.49517829  0.99782994  0.74965509  1
  Ba  Ba8  1  0.26053925  0.24926964  0.00180315  1
  Ba  Ba9  1  0.25794607  0.24903896  0.24885661  1
  Ba  Ba10  1  0.24512423  0.24766057  0.50278812  1
  Ba  Ba11  1  0.24250473  0.24728336  0.74733204  1
  Ba  Ba12  1  0.00739666  0.50099259  0.99983466  1
  Ba  Ba13  1  0.00318670  0.50172781  0.24985153  1
  Ba  Ba14  1  0.99578460  0.49962014  0.49946208  1
  Ba  Ba15  1  0.99697793  0.49868138  0.74974260  1
  Ba  Ba16  1  0.75317318  0.25027103  0.99973549  1
  Ba  Ba17  1  0.75762476  0.25154268  0.24866223  1
  Ba  Ba18  1  0.74439924  0.24781915  0.49984817  1
  Ba  Ba19  1  0.74364809  0.24761629  0.74965852  1
  Ba  Ba20  1  0.50628169  0.50211252  0.00270565  1
  Ba  Ba21  1  0.50539545  0.50252512  0.24771950  1
  Ba  Ba22  1  0.48729600  0.49869086  0.50323832  1
  Ba  Ba23  1  0.49005080  0.50205803  0.74792717  1
  Ba  Ba24  1  0.25371540  0.75255463  0.00129421  1
  Ba  Ba25  1  0.25818912  0.75248614  0.24843747  1
  Ba  Ba26  1  0.24355935  0.74537919  0.50066181  1
  Ba  Ba27  1  0.24355657  0.74815729  0.75062045  1
  Ba  Ba28  1  0.76086038  0.74709874  0.00122831  1
  Ba  Ba29  1  0.75856267  0.75149772  0.24852474  1
  Ba  Ba30  1  0.74573507  0.74541153  0.50230127  1
  Ba  Ba31  1  0.74364680  0.74701044  0.74713234  1
  Cs  Cs32  1  0.97323164  0.26444511  0.12873415  1
  Cs  Cs33  1  0.04206646  0.25581947  0.35619244  1
  Cs  Cs34  1  0.02078391  0.26800882  0.62370070  1
  Cs  Cs35  1  0.04115704  0.25618591  0.89688085  1
  Cs  Cs36  1  0.48117790  0.24471869  0.12402275  1
  Cs  Cs37  1  0.53727022  0.25041850  0.35541028  1
  Cs  Cs38  1  0.52220343  0.25106658  0.63154267  1
  Cs  Cs39  1  0.46581847  0.24937710  0.85467032  1
  Cs  Cs40  1  0.22473258  0.50043785  0.12348459  1
  Cs  Cs41  1  0.28062335  0.49727314  0.35443946  1
  Cs  Cs42  1  0.26964410  0.49495203  0.62249123  1
  Cs  Cs43  1  0.28185378  0.50137653  0.89551632  1
  Cs  Cs44  1  0.97713141  0.75247792  0.12792127  1
  Cs  Cs45  1  0.03841362  0.75018729  0.35742058  1
  Cs  Cs46  1  0.02496631  0.74701941  0.62351315  1
  Cs  Cs47  1  0.96628310  0.74909552  0.85395220  1
  Cs  Cs48  1  0.72894160  0.48773526  0.12180466  1
  Cs  Cs49  1  0.70717292  0.49878115  0.39723450  1
  Cs  Cs50  1  0.77735083  0.48568459  0.61881990  1
  Cs  Cs51  1  0.70889537  0.49325074  0.85266051  1
  Cs  Cs52  1  0.47677573  0.76907332  0.12166859  1
  Cs  Cs53  1  0.53830422  0.75041463  0.35589483  1
  Cs  Cs54  1  0.52062757  0.76487372  0.62506085  1
  Cs  Cs55  1  0.54128636  0.75470687  0.89595138  1
  Cs  Cs56  1  0.22589953  0.98855324  0.12893814  1
  Cs  Cs57  1  0.20763791  0.99632407  0.39640603  1
  Cs  Cs58  1  0.27502939  0.98542864  0.62103614  1
  Cs  Cs59  1  0.21098027  0.99400316  0.85245461  1
  Cs  Cs60  1  0.72887492  0.99630948  0.11737389  1
  Cs  Cs61  1  0.70928679  0.99598424  0.39646463  1
  Cs  Cs62  1  0.77222580  0.99633757  0.62405255  1
  Cs  Cs63  1  0.78845921  0.00063985  0.89433635  1
  I  I64  1  0.15246751  0.10737423  0.97070111  1
  I  I65  1  0.15350134  0.10288081  0.27505695  1
  I  I66  1  0.09820525  0.14254712  0.47246724  1
  I  I67  1  0.09888801  0.14317913  0.78052442  1
  I  I68  1  0.66374827  0.09104134  0.98906084  1
  I  I69  1  0.65244545  0.10604654  0.27614849  1
  I  I70  1  0.59668162  0.14272341  0.47447672  1
  I  I71  1  0.58682779  0.15479949  0.76037994  1
  I  I72  1  0.35430230  0.40484600  0.02392262  1
  I  I73  1  0.35367498  0.40362990  0.22697927  1
  I  I74  1  0.38627420  0.35388338  0.53820816  1
  I  I75  1  0.39348021  0.34842563  0.72878439  1
  I  I76  1  0.16531292  0.59298742  0.99447428  1
  I  I77  1  0.15237208  0.60661661  0.26855396  1
  I  I78  1  0.08277943  0.66052582  0.48628763  1
  I  I79  1  0.08589664  0.65743468  0.75776482  1
  I  I80  1  0.86567019  0.39024778  0.02746085  1
  I  I81  1  0.85938323  0.39732087  0.21905256  1
  I  I82  1  0.88615653  0.35545292  0.52611105  1
  I  I83  1  0.88378766  0.35902496  0.72236563  1
  I  I84  1  0.65204739  0.60523812  0.97215612  1
  I  I85  1  0.65054059  0.60651323  0.27673291  1
  I  I86  1  0.59610653  0.64242481  0.47488750  1
  I  I87  1  0.59970069  0.64212553  0.77963391  1
  I  I88  1  0.36343723  0.89424828  0.03067103  1
  I  I89  1  0.36454264  0.89444854  0.21906103  1
  I  I90  1  0.38645367  0.85290248  0.53013241  1
  I  I91  1  0.38334123  0.85904713  0.72110871  1
  I  I92  1  0.85881374  0.90034682  0.02141530  1
  I  I93  1  0.86012758  0.89669335  0.21519712  1
  I  I94  1  0.88511990  0.85524448  0.53330786  1
  I  I95  1  0.89357151  0.84842627  0.72682205  1
  I  I96  1  0.90120574  0.14492725  0.97290852  1
  I  I97  1  0.91294330  0.16063071  0.26530010  1
  I  I98  1  0.83692622  0.09274437  0.48502487  1
  I  I99  1  0.83397486  0.08934598  0.76529855  1
  I  I100  1  0.41871599  0.16169825  0.98547617  1
  I  I101  1  0.41437697  0.15815550  0.26063224  1
  I  I102  1  0.33801919  0.09270301  0.48472119  1
  I  I103  1  0.34933153  0.10493933  0.77693079  1
  I  I104  1  0.10934357  0.34890039  0.02251783  1
  I  I105  1  0.10938936  0.35326485  0.22768278  1
  I  I106  1  0.13499353  0.38854666  0.53029756  1
  I  I107  1  0.13682604  0.38887030  0.71753035  1
  I  I108  1  0.91622391  0.65746312  0.98276922  1
  I  I109  1  0.91318276  0.65933785  0.26367536  1
  I  I110  1  0.83748635  0.59044223  0.48625212  1
  I  I111  1  0.84904047  0.60333067  0.77768281  1
  I  I112  1  0.61320853  0.36025875  0.03421155  1
  I  I113  1  0.60585854  0.35257634  0.22613216  1
  I  I114  1  0.63767539  0.39585662  0.52062448  1
  I  I115  1  0.63949488  0.39898535  0.72595000  1
  I  I116  1  0.40301295  0.64870302  0.97481640  1
  I  I117  1  0.39851575  0.64326258  0.28037700  1
  I  I118  1  0.33066293  0.58654977  0.48211011  1
  I  I119  1  0.33492023  0.59138176  0.76818567  1
  I  I120  1  0.11552359  0.86251860  0.03768916  1
  I  I121  1  0.10942974  0.85628988  0.22680129  1
  I  I122  1  0.14069660  0.89709380  0.52207121  1
  I  I123  1  0.14167307  0.90047258  0.72735005  1
  I  I124  1  0.61066953  0.85032528  0.02092513  1
  I  I125  1  0.60761494  0.85070766  0.22731665  1
  I  I126  1  0.63836527  0.89302467  0.52435132  1
  I  I127  1  0.63484017  0.88729721  0.71738425  1
  I  I128  1  0.02452210  0.05507728  0.12517930  1
  I  I129  1  0.00347797  0.95506184  0.37478363  1
  I  I130  1  0.97629017  0.05475656  0.62483468  1
  I  I131  1  0.99694208  0.95570751  0.87495921  1
  I  I132  1  0.52569678  0.03932187  0.12484908  1
  I  I133  1  0.50767619  0.95462874  0.37502631  1
  I  I134  1  0.47652743  0.04535411  0.62500493  1
  I  I135  1  0.50340500  0.95514970  0.87498116  1
  I  I136  1  0.27396526  0.20052676  0.12498180  1
  I  I137  1  0.24742637  0.29308454  0.37508246  1
  I  I138  1  0.22168866  0.19433933  0.62547716  1
  I  I139  1  0.25629816  0.29428513  0.87511680  1
  I  I140  1  0.02217780  0.54354332  0.12528479  1
  I  I141  1  0.01027345  0.45843673  0.37438952  1
  I  I142  1  0.97887650  0.54169269  0.62476923  1
  I  I143  1  0.02296557  0.45990022  0.87492906  1
  I  I144  1  0.77117621  0.20308912  0.12462628  1
  I  I145  1  0.73740057  0.29637625  0.37401068  1
  I  I146  1  0.72525078  0.20572166  0.62425419  1
  I  I147  1  0.73249254  0.29003089  0.87490251  1
  I  I148  1  0.52523597  0.55561120  0.12542074  1
  I  I149  1  0.49686201  0.45524382  0.37499396  1
  I  I150  1  0.47526405  0.55491531  0.62534543  1
  I  I151  1  0.49664903  0.45571880  0.87550017  1
  I  I152  1  0.27850068  0.70398143  0.12575335  1
  I  I153  1  0.23956478  0.79190609  0.37474012  1
  I  I154  1  0.23075027  0.70504694  0.62516935  1
  I  I155  1  0.23042020  0.79105724  0.87608208  1
  I  I156  1  0.77089931  0.69800669  0.12471108  1
  I  I157  1  0.74054903  0.79192071  0.37550739  1
  I  I158  1  0.72167232  0.69479203  0.62529787  1
  I  I159  1  0.75361689  0.79419123  0.87477523  1
