# generated using pymatgen
data_CsBaF3
_symmetry_space_group_name_H-M   'P 1'
_cell_length_a   14.44142564
_cell_length_b   14.44142564
_cell_length_c   20.42325900
_cell_angle_alpha   90.00000000
_cell_angle_beta   90.00000000
_cell_angle_gamma   90.00000000
_symmetry_Int_Tables_number   1
_chemical_formula_structural   CsBaF3
_chemical_formula_sum   'Cs32 Ba32 F96'
_cell_volume   4259.36817558
_cell_formula_units_Z   32
loop_
 _symmetry_equiv_pos_site_id
 _symmetry_equiv_pos_as_xyz
  1  'x, y, z'
loop_
 _atom_site_type_symbol
 _atom_site_label
 _atom_site_symmetry_multiplicity
 _atom_site_fract_x
 _atom_site_fract_y
 _atom_site_fract_z
 _atom_site_occupancy
  Ba  Ba0  1  0.99528834  0.00356781  0.00118158  1
  Ba  Ba1  1  0.00141509  0.00081471  0.24970302  1
  Ba  Ba2  1  0.00468417  0.99654948  0.49896961  1
  Ba  Ba3  1  0.00015028  0.00059621  0.74996308  1
  Ba  Ba4  1  0.49819312  0.00328388  0.00114403  1
  Ba  Ba5  1  0.50155152  0.00118522  0.25025546  1
  Ba  Ba6  1  0.50350726  0.99586928  0.49951987  1
  Ba  Ba7  1  0.50014635  0.99984490  0.75114005  1
  Ba  Ba8  1  0.25000432  0.25139213  0.00082363  1
  Ba  Ba9  1  0.25155911  0.25040390  0.25018455  1
  Ba  Ba10  1  0.25423224  0.24645512  0.49911511  1
  Ba  Ba11  1  0.24972710  0.24800337  0.74952756  1
  Ba  Ba12  1  0.00046249  0.50444232  0.99977718  1
  Ba  Ba13  1  0.00243387  0.50076215  0.25055137  1
  Ba  Ba14  1  0.00015169  0.49554219  0.50033614  1
  Ba  Ba15  1  0.00072405  0.49872091  0.75066444  1
  Ba  Ba16  1  0.74592565  0.25092070  0.00186099  1
  Ba  Ba17  1  0.75131419  0.25166499  0.25021676  1
  Ba  Ba18  1  0.75458042  0.24749787  0.50038564  1
  Ba  Ba19  1  0.74815098  0.25015087  0.75226646  1
  Ba  Ba20  1  0.49811110  0.50252833  0.00074625  1
  Ba  Ba21  1  0.50130019  0.50154479  0.25004508  1
  Ba  Ba22  1  0.50213850  0.49838002  0.50028244  1
  Ba  Ba23  1  0.50024232  0.50022173  0.74970170  1
  Ba  Ba24  1  0.24642889  0.75090386  0.00013227  1
  Ba  Ba25  1  0.25313683  0.75032446  0.25007654  1
  Ba  Ba26  1  0.25454281  0.74944507  0.50053661  1
  Ba  Ba27  1  0.25154757  0.74946421  0.74899633  1
  Ba  Ba28  1  0.74784017  0.75360502  0.00040662  1
  Ba  Ba29  1  0.75308195  0.75022204  0.25034922  1
  Ba  Ba30  1  0.75277594  0.74612433  0.49941408  1
  Ba  Ba31  1  0.75248033  0.74949566  0.75084902  1
  Cs  Cs32  1  0.98648088  0.26439729  0.11848021  1
  Cs  Cs33  1  0.99625791  0.25443512  0.36270069  1
  Cs  Cs34  1  0.00948641  0.25842469  0.62009987  1
  Cs  Cs35  1  0.99646348  0.25969575  0.87748928  1
  Cs  Cs36  1  0.50638498  0.24662756  0.13757857  1
  Cs  Cs37  1  0.51683242  0.23597971  0.38069653  1
  Cs  Cs38  1  0.50785334  0.24335648  0.62493708  1
  Cs  Cs39  1  0.51646489  0.25714344  0.87513942  1
  Cs  Cs40  1  0.26113878  0.48681091  0.13128543  1
  Cs  Cs41  1  0.25779836  0.49461984  0.38674199  1
  Cs  Cs42  1  0.24815891  0.49867978  0.62911243  1
  Cs  Cs43  1  0.26321661  0.49511341  0.88545537  1
  Cs  Cs44  1  0.00757645  0.74481640  0.13836291  1
  Cs  Cs45  1  0.01999093  0.73922371  0.38122352  1
  Cs  Cs46  1  0.00872939  0.74488557  0.62589634  1
  Cs  Cs47  1  0.00056380  0.75556946  0.87608313  1
  Cs  Cs48  1  0.74675225  0.50946881  0.11312294  1
  Cs  Cs49  1  0.73769095  0.50918765  0.36864041  1
  Cs  Cs50  1  0.73791793  0.50156219  0.61431030  1
  Cs  Cs51  1  0.74986841  0.50510372  0.87150939  1
  Cs  Cs52  1  0.49100100  0.76858876  0.11936324  1
  Cs  Cs53  1  0.49765615  0.75534643  0.36408404  1
  Cs  Cs54  1  0.49408800  0.74949493  0.62896455  1
  Cs  Cs55  1  0.49378772  0.75608640  0.87640679  1
  Cs  Cs56  1  0.24376420  0.00507893  0.11236341  1
  Cs  Cs57  1  0.23945045  0.00995108  0.36798992  1
  Cs  Cs58  1  0.25373966  0.01719167  0.62447637  1
  Cs  Cs59  1  0.23019042  0.01485971  0.87533140  1
  Cs  Cs60  1  0.76049262  0.98850337  0.13335235  1
  Cs  Cs61  1  0.75784783  0.99468818  0.38809890  1
  Cs  Cs62  1  0.76905274  0.98182092  0.62498395  1
  Cs  Cs63  1  0.75369599  0.99094349  0.86937232  1
  F  F64  1  0.10754453  0.14292856  0.02921781  1
  F  F65  1  0.15884051  0.09327875  0.23656543  1
  F  F66  1  0.11886190  0.13170465  0.53079622  1
  F  F67  1  0.11875590  0.12899456  0.71791914  1
  F  F68  1  0.58857841  0.16057185  0.01313648  1
  F  F69  1  0.63884590  0.11424547  0.21844976  1
  F  F70  1  0.60006255  0.15087104  0.51095269  1
  F  F71  1  0.59322616  0.15554119  0.74464692  1
  F  F72  1  0.38628773  0.36429122  0.96935228  1
  F  F73  1  0.34399183  0.40834778  0.26389721  1
  F  F74  1  0.39340629  0.35741922  0.47049768  1
  F  F75  1  0.37506685  0.37334870  0.77439834  1
  F  F76  1  0.08902268  0.66143974  0.01173915  1
  F  F77  1  0.14218303  0.61107075  0.21943217  1
  F  F78  1  0.10369083  0.64554747  0.51645877  1
  F  F79  1  0.12401168  0.62579038  0.72007328  1
  F  F80  1  0.89725377  0.35321656  0.98727142  1
  F  F81  1  0.86406678  0.38923862  0.28176665  1
  F  F82  1  0.91194619  0.33734764  0.48830440  1
  F  F83  1  0.87914836  0.36983118  0.78038777  1
  F  F84  1  0.60794289  0.64257647  0.02948844  1
  F  F85  1  0.65937945  0.59342480  0.23670605  1
  F  F86  1  0.61385985  0.63622108  0.53157486  1
  F  F87  1  0.62715230  0.62482819  0.72353841  1
  F  F88  1  0.39982695  0.84894976  0.98966898  1
  F  F89  1  0.36478443  0.88819501  0.28251131  1
  F  F90  1  0.41215928  0.83854827  0.48977585  1
  F  F91  1  0.40311982  0.84691275  0.75962458  1
  F  F92  1  0.87887294  0.87175426  0.96618449  1
  F  F93  1  0.84473489  0.90797810  0.26371009  1
  F  F94  1  0.89484969  0.85489789  0.47111610  1
  F  F95  1  0.88034494  0.87166369  0.78023777  1
  F  F96  1  0.85525179  0.11172480  0.02961607  1
  F  F97  1  0.90167574  0.15155520  0.23130823  1
  F  F98  1  0.85293894  0.09513683  0.51329907  1
  F  F99  1  0.85629417  0.10766339  0.73187156  1
  F  F100  1  0.34338691  0.09708397  0.98581676  1
  F  F101  1  0.40202777  0.15159800  0.26953313  1
  F  F102  1  0.35391004  0.09669435  0.48015764  1
  F  F103  1  0.34831249  0.09764577  0.76618091  1
  F  F104  1  0.14566734  0.39799639  0.02061969  1
  F  F105  1  0.10208922  0.35080671  0.23059552  1
  F  F106  1  0.14672055  0.39034417  0.52190753  1
  F  F107  1  0.12466306  0.37277206  0.71984869  1
  F  F108  1  0.84970246  0.60411952  0.98187018  1
  F  F109  1  0.90531738  0.65305807  0.26843788  1
  F  F110  1  0.85090445  0.59496322  0.48160666  1
  F  F111  1  0.88026400  0.62741518  0.78041722  1
  F  F112  1  0.64470737  0.39938962  0.97860570  1
  F  F113  1  0.60291034  0.35329408  0.27139333  1
  F  F114  1  0.65269877  0.39747119  0.48144394  1
  F  F115  1  0.63093663  0.38346395  0.78190093  1
  F  F116  1  0.34531723  0.59955651  0.01862261  1
  F  F117  1  0.40448554  0.65299002  0.23115057  1
  F  F118  1  0.35220868  0.59770815  0.51982235  1
  F  F119  1  0.37168532  0.61965479  0.71707211  1
  F  F120  1  0.14277265  0.89918110  0.98179461  1
  F  F121  1  0.10348449  0.85183538  0.26914688  1
  F  F122  1  0.14429117  0.88725207  0.47040356  1
  F  F123  1  0.12776537  0.87658934  0.77915395  1
  F  F124  1  0.64014406  0.89521589  0.02845845  1
  F  F125  1  0.60491748  0.85325088  0.23085375  1
  F  F126  1  0.65654250  0.89887746  0.51277243  1
  F  F127  1  0.64556143  0.89366166  0.72999788  1
  F  F128  1  0.99351355  0.95498049  0.12509789  1
  F  F129  1  0.00772325  0.04433411  0.37477238  1
  F  F130  1  0.99083825  0.95248737  0.62485545  1
  F  F131  1  0.00756910  0.04922980  0.87533099  1
  F  F132  1  0.45407359  0.99471832  0.12631101  1
  F  F133  1  0.54615732  0.00694548  0.37465245  1
  F  F134  1  0.46695410  0.00525291  0.62479231  1
  F  F135  1  0.53891623  0.99093060  0.87656008  1
  F  F136  1  0.29512261  0.25820216  0.12524699  1
  F  F137  1  0.20711712  0.24318907  0.37505082  1
  F  F138  1  0.29833362  0.24318205  0.62466427  1
  F  F139  1  0.20463140  0.24082624  0.87505517  1
  F  F140  1  0.95786134  0.49521405  0.12538006  1
  F  F141  1  0.04693105  0.50499985  0.37568613  1
  F  F142  1  0.95422698  0.49316096  0.62554644  1
  F  F143  1  0.04797207  0.49188214  0.87533279  1
  F  F144  1  0.74955309  0.29938021  0.12613217  1
  F  F145  1  0.74430496  0.20696756  0.37491766  1
  F  F146  1  0.74450988  0.28686236  0.62608614  1
  F  F147  1  0.74529543  0.20439564  0.87751508  1
  F  F148  1  0.49285451  0.45690533  0.12527921  1
  F  F149  1  0.50671195  0.54448808  0.37556509  1
  F  F150  1  0.51039801  0.45172974  0.62501140  1
  F  F151  1  0.49098779  0.54671055  0.87508534  1
  F  F152  1  0.25425210  0.79467692  0.12529595  1
  F  F153  1  0.24774403  0.70374260  0.37511034  1
  F  F154  1  0.24355136  0.79849923  0.62442729  1
  F  F155  1  0.25622803  0.70834825  0.87455046  1
  F  F156  1  0.79613368  0.75415568  0.12489118  1
  F  F157  1  0.70814983  0.74007294  0.37489352  1
  F  F158  1  0.79806039  0.75709131  0.62514767  1
  F  F159  1  0.70241300  0.74790473  0.87525924  1
