# generated using pymatgen
data_CsBaBr3
_symmetry_space_group_name_H-M   'P 1'
_cell_length_a   18.05386448
_cell_length_b   18.05386448
_cell_length_c   25.53201900
_cell_angle_alpha   90.00000000
_cell_angle_beta   90.00000000
_cell_angle_gamma   90.00000000
_symmetry_Int_Tables_number   1
_chemical_formula_structural   CsBaBr3
_chemical_formula_sum   'Cs32 Ba32 Br96'
_cell_volume   8321.95791495
_cell_formula_units_Z   32
loop_
 _symmetry_equiv_pos_site_id
 _symmetry_equiv_pos_as_xyz
  1  'x, y, z'
loop_
 _atom_site_type_symbol
 _atom_site_label
 _atom_site_symmetry_multiplicity
 _atom_site_fract_x
 _atom_site_fract_y
 _atom_site_fract_z
 _atom_site_occupancy
  Ba  Ba0  1  0.99782993  -0.00073630  0.00030676  1
  Ba  Ba1  1  -0.00006501  0.00199604  0.24970899  1
  Ba  Ba2  1  0.00098216  0.99507710  0.50002077  1
  Ba  Ba3  1  0.99656223  0.00365155  0.75028415  1
  Ba  Ba4  1  0.49850558  0.00086022  0.99890986  1
  Ba  Ba5  1  0.49778925  0.00591275  0.24980882  1
  Ba  Ba6  1  0.50038412  0.99755690  0.49933179  1
  Ba  Ba7  1  0.49975395  0.99645641  0.75106127  1
  Ba  Ba8  1  0.25106108  0.25435798  -0.00052743  1
  Ba  Ba9  1  0.25388707  0.25308995  0.24898657  1
  Ba  Ba10  1  0.25244958  0.24709182  0.50101223  1
  Ba  Ba11  1  0.24649400  0.25083354  0.74998637  1
  Ba  Ba12  1  0.00158864  0.50083686  0.99896029  1
  Ba  Ba13  1  0.00199480  0.50218532  0.24935757  1
  Ba  Ba14  1  0.00258537  0.50367854  0.50164703  1
  Ba  Ba15  1  0.99845788  0.49622570  0.75035862  1
  Ba  Ba16  1  0.75131855  0.25055612  0.99753240  1
  Ba  Ba17  1  0.75028527  0.25163752  0.24956351  1
  Ba  Ba18  1  0.74990071  0.24717437  0.49975451  1
  Ba  Ba19  1  0.75014787  0.24876379  0.74833091  1
  Ba  Ba20  1  0.50301584  0.50096469  0.00074520  1
  Ba  Ba21  1  0.50386889  0.49821791  0.24883734  1
  Ba  Ba22  1  0.50227291  0.49898301  0.50044654  1
  Ba  Ba23  1  0.49986089  0.50103213  0.75031974  1
  Ba  Ba24  1  0.25052875  0.75134987  0.00040888  1
  Ba  Ba25  1  0.24834411  0.75600319  0.25030492  1
  Ba  Ba26  1  0.25051673  0.75077794  0.50035715  1
  Ba  Ba27  1  0.25233349  0.75152218  0.75276307  1
  Ba  Ba28  1  0.75136575  0.75044521  0.00020556  1
  Ba  Ba29  1  0.75263944  0.75202326  0.25012112  1
  Ba  Ba30  1  0.75321362  0.74957933  0.50136183  1
  Ba  Ba31  1  0.74547179  0.75089685  0.75070887  1
  Br  Br32  1  0.13802087  0.11356521  0.97642801  1
  Br  Br33  1  0.15032023  0.10294655  0.26162893  1
  Br  Br34  1  0.10418495  0.14232567  0.47730558  1
  Br  Br35  1  0.13913019  0.10901068  0.77787981  1
  Br  Br36  1  0.63686164  0.11458326  0.02425541  1
  Br  Br37  1  0.64942442  0.10345047  0.23005325  1
  Br  Br38  1  0.59738057  0.15117463  0.51730571  1
  Br  Br39  1  0.63964314  0.10622339  0.72631781  1
  Br  Br40  1  0.35636574  0.39745126  0.01946963  1
  Br  Br41  1  0.34483682  0.40985320  0.23996495  1
  Br  Br42  1  0.40519043  0.34383766  0.51832895  1
  Br  Br43  1  0.35094077  0.39791733  0.73182009  1
  Br  Br44  1  0.12822276  0.62369904  0.03148161  1
  Br  Br45  1  0.15527256  0.59927711  0.24070739  1
  Br  Br46  1  0.11561551  0.63813258  0.53546127  1
  Br  Br47  1  0.13033645  0.62044173  0.72802263  1
  Br  Br48  1  0.85582631  0.39507677  0.98105489  1
  Br  Br49  1  0.85260774  0.40095838  0.26405181  1
  Br  Br50  1  0.89526713  0.35400016  0.47855607  1
  Br  Br51  1  0.84191149  0.40441563  0.76088227  1
  Br  Br52  1  0.62832932  0.62410532  0.96852841  1
  Br  Br53  1  0.63164013  0.62217280  0.27292060  1
  Br  Br54  1  0.59982661  0.65159913  0.48051628  1
  Br  Br55  1  0.65333331  0.59499485  0.76256913  1
  Br  Br56  1  0.37223117  0.87904038  0.96790790  1
  Br  Br57  1  0.36174360  0.89179677  0.27385225  1
  Br  Br58  1  0.40548754  0.84405537  0.47885074  1
  Br  Br59  1  0.34476002  0.90480651  0.76621441  1
  Br  Br60  1  0.87338634  0.87723915  0.03352843  1
  Br  Br61  1  0.84446099  0.90891715  0.24173018  1
  Br  Br62  1  0.89439953  0.85611511  0.53311101  1
  Br  Br63  1  0.86649545  0.88198025  0.72610702  1
  Br  Br64  1  0.87861102  0.12776018  0.96852516  1
  Br  Br65  1  0.90317566  0.15472177  0.27056267  1
  Br  Br66  1  0.84975529  0.09537326  0.48045177  1
  Br  Br67  1  0.87960222  0.13224374  0.78422188  1
  Br  Br68  1  0.37842201  0.13027122  0.02971511  1
  Br  Br69  1  0.39676135  0.14930629  0.22204182  1
  Br  Br70  1  0.34718185  0.09287210  0.50714370  1
  Br  Br71  1  0.39288039  0.14372033  0.73212157  1
  Br  Br72  1  0.11787914  0.36938862  0.96809732  1
  Br  Br73  1  0.10080493  0.35098728  0.26807669  1
  Br  Br74  1  0.13110468  0.37852224  0.48855065  1
  Br  Br75  1  0.10413148  0.35554849  0.77372071  1
  Br  Br76  1  0.87232159  0.62276579  0.03035084  1
  Br  Br77  1  0.90538247  0.65636439  0.23238015  1
  Br  Br78  1  0.84669876  0.59549765  0.50996594  1
  Br  Br79  1  0.89025713  0.64175004  0.72928668  1
  Br  Br80  1  0.62214607  0.37087137  0.03063344  1
  Br  Br81  1  0.61180681  0.36079247  0.21859623  1
  Br  Br82  1  0.65502151  0.40224519  0.51230780  1
  Br  Br83  1  0.59809679  0.34905838  0.72989889  1
  Br  Br84  1  0.37452975  0.62514554  0.97264136  1
  Br  Br85  1  0.39329922  0.64550677  0.26981174  1
  Br  Br86  1  0.35010608  0.59850129  0.48881494  1
  Br  Br87  1  0.38384493  0.63399917  0.78163030  1
  Br  Br88  1  0.13164584  0.88220185  0.02870190  1
  Br  Br89  1  0.09437638  0.84728299  0.23021551  1
  Br  Br90  1  0.15784081  0.90521313  0.51648472  1
  Br  Br91  1  0.11123676  0.86422246  0.72950054  1
  Br  Br92  1  0.63199789  0.88195563  0.97378828  1
  Br  Br93  1  0.60838199  0.86192729  0.27016361  1
  Br  Br94  1  0.65322915  0.90123589  0.49747068  1
  Br  Br95  1  0.60533608  0.85573847  0.77939660  1
  Br  Br96  1  0.01310187  0.04566916  0.12523777  1
  Br  Br97  1  0.01955224  0.95982112  0.37447460  1
  Br  Br98  1  0.98890770  0.04559086  0.62406787  1
  Br  Br99  1  0.00880423  0.95462215  0.87509080  1
  Br  Br100  1  0.51124343  0.95922824  0.12512925  1
  Br  Br101  1  0.52218247  0.03890210  0.37533805  1
  Br  Br102  1  0.47866098  0.96439597  0.62464730  1
  Br  Br103  1  0.51608070  0.04667158  0.87440283  1
  Br  Br104  1  0.20547594  0.24392674  0.12449288  1
  Br  Br105  1  0.28703599  0.23319799  0.37519178  1
  Br  Br106  1  0.21384490  0.22233951  0.62491213  1
  Br  Br107  1  0.29432120  0.26560382  0.87416467  1
  Br  Br108  1  0.98784352  0.45736530  0.12526176  1
  Br  Br109  1  0.98877099  0.53820077  0.37556629  1
  Br  Br110  1  0.97856620  0.46094006  0.62477930  1
  Br  Br111  1  0.98439137  0.54601411  0.87402641  1
  Br  Br112  1  0.79449451  0.25701649  0.12398686  1
  Br  Br113  1  0.71088435  0.26548393  0.37494336  1
  Br  Br114  1  0.79453522  0.22839195  0.62317179  1
  Br  Br115  1  0.70254745  0.23891540  0.87320886  1
  Br  Br116  1  0.48814442  0.54863375  0.12537161  1
  Br  Br117  1  0.48773429  0.46269032  0.37506677  1
  Br  Br118  1  0.48438007  0.54335809  0.62489280  1
  Br  Br119  1  0.49213653  0.45492049  0.87513584  1
  Br  Br120  1  0.29466131  0.74187652  0.12658668  1
  Br  Br121  1  0.21032132  0.73459775  0.37581488  1
  Br  Br122  1  0.29466705  0.74669719  0.62655391  1
  Br  Br123  1  0.20068909  0.76201561  0.87587956  1
  Br  Br124  1  0.70554943  0.76368885  0.12630352  1
  Br  Br125  1  0.78870799  0.77262864  0.37599224  1
  Br  Br126  1  0.71015405  0.72985505  0.62536392  1
  Br  Br127  1  0.79646079  0.73826937  0.87454196  1
  Cs  Cs128  1  0.00083416  0.25133037  0.15501154  1
  Cs  Cs129  1  0.00664328  0.25615083  0.37698817  1
  Cs  Cs130  1  0.00580569  0.25459291  0.59440204  1
  Cs  Cs131  1  0.02099119  0.22766839  0.87728459  1
  Cs  Cs132  1  0.52301714  0.23125325  0.11985318  1
  Cs  Cs133  1  0.50000752  0.24976937  0.39991366  1
  Cs  Cs134  1  0.50105595  0.23924381  0.62980113  1
  Cs  Cs135  1  0.49916694  0.24970546  0.84414182  1
  Cs  Cs136  1  0.27738198  0.53071111  0.12422451  1
  Cs  Cs137  1  0.27414148  0.52607192  0.35630497  1
  Cs  Cs138  1  0.27240017  0.53993770  0.62604772  1
  Cs  Cs139  1  0.28685570  0.47533998  0.88005903  1
  Cs  Cs140  1  0.00090179  0.74912498  0.11203349  1
  Cs  Cs141  1  0.00029528  0.75028362  0.34808363  1
  Cs  Cs142  1  0.00461567  0.75034263  0.63449911  1
  Cs  Cs143  1  0.99882618  0.74963164  0.83846849  1
  Cs  Cs144  1  0.77855946  0.46214860  0.11497588  1
  Cs  Cs145  1  0.77256419  0.47624341  0.39342778  1
  Cs  Cs146  1  0.76861263  0.52048328  0.64025683  1
  Cs  Cs147  1  0.77403621  0.52685180  0.87559184  1
  Cs  Cs148  1  0.50117470  0.75186398  0.15919037  1
  Cs  Cs149  1  0.50551144  0.74620688  0.36819161  1
  Cs  Cs150  1  0.50416913  0.75137953  0.59528186  1
  Cs  Cs151  1  0.50081567  0.75001843  0.88873073  1
  Cs  Cs152  1  0.22188457  0.03890482  0.11451977  1
  Cs  Cs153  1  0.22854897  0.02177483  0.38841902  1
  Cs  Cs154  1  0.26771126  0.00311852  0.63418401  1
  Cs  Cs155  1  0.22037225  0.97186435  0.87730387  1
  Cs  Cs156  1  0.72294852  0.97327856  0.12310423  1
  Cs  Cs157  1  0.73205509  0.98114688  0.36471178  1
  Cs  Cs158  1  0.77956570  0.01097508  0.61168174  1
  Cs  Cs159  1  0.72623848  0.03286172  0.87845356  1
