# generated using pymatgen
data_CsBeCl3
_symmetry_space_group_name_H-M   'P 1'
_cell_length_a   13.70979074
_cell_length_b   13.70979074
_cell_length_c   19.38857200
_cell_angle_alpha   90.00000000
_cell_angle_beta   90.00000000
_cell_angle_gamma   90.00000000
_symmetry_Int_Tables_number   1
_chemical_formula_structural   CsBeCl3
_chemical_formula_sum   'Cs32 Be32 Cl96'
_cell_volume   3644.24423657
_cell_formula_units_Z   32
loop_
 _symmetry_equiv_pos_site_id
 _symmetry_equiv_pos_as_xyz
  1  'x, y, z'
loop_
 _atom_site_type_symbol
 _atom_site_label
 _atom_site_symmetry_multiplicity
 _atom_site_fract_x
 _atom_site_fract_y
 _atom_site_fract_z
 _atom_site_occupancy
  Cs  Cs0  1  0.00107766  0.00077382  0.01413257  1
  Cs  Cs1  1  0.00248707  0.01251595  0.25869814  1
  Cs  Cs2  1  0.00192882  0.00970534  0.50000268  1
  Cs  Cs3  1  0.99472429  0.01467972  0.75002124  1
  Cs  Cs4  1  0.49761513  0.00382799  0.00890456  1
  Cs  Cs5  1  0.51038612  0.01402701  0.25447588  1
  Cs  Cs6  1  0.49176822  0.98241643  0.50363110  1
  Cs  Cs7  1  0.49257395  0.00124444  0.73839375  1
  Cs  Cs8  1  0.26168107  0.24479650  0.00860323  1
  Cs  Cs9  1  0.27007714  0.24742690  0.25193829  1
  Cs  Cs10  1  0.25537888  0.25871002  0.50738332  1
  Cs  Cs11  1  0.23717309  0.26774860  0.74686987  1
  Cs  Cs12  1  0.99385708  0.50053225  0.99418744  1
  Cs  Cs13  1  0.98365372  0.48134520  0.25674773  1
  Cs  Cs14  1  0.01066316  0.51600945  0.49056852  1
  Cs  Cs15  1  0.00862503  0.51622357  0.75341147  1
  Cs  Cs16  1  0.74991454  0.26457485  0.99824371  1
  Cs  Cs17  1  0.75260635  0.25058225  0.25534835  1
  Cs  Cs18  1  0.75739152  0.25414990  0.50559430  1
  Cs  Cs19  1  0.74909343  0.25109504  0.75158236  1
  Cs  Cs20  1  0.49112943  0.49005574  0.99151874  1
  Cs  Cs21  1  0.50294035  0.50043450  0.24961290  1
  Cs  Cs22  1  0.49802081  0.49646282  0.50444150  1
  Cs  Cs23  1  0.49921062  0.49506491  0.74898880  1
  Cs  Cs24  1  0.24448404  0.74086946  0.00837457  1
  Cs  Cs25  1  0.25087012  0.73046163  0.24035369  1
  Cs  Cs26  1  0.25216948  0.75796973  0.49417692  1
  Cs  Cs27  1  0.24672860  0.75896888  0.76452893  1
  Cs  Cs28  1  0.75715750  0.76389729  0.00466888  1
  Cs  Cs29  1  0.73480356  0.75491169  0.25666788  1
  Cs  Cs30  1  0.76613607  0.73031173  0.49556120  1
  Cs  Cs31  1  0.76540164  0.74200674  0.74137392  1
  Be  Be32  1  0.97477315  0.27454401  0.10923416  1
  Be  Be33  1  0.05721612  0.24053517  0.37884266  1
  Be  Be34  1  0.98263236  0.22969837  0.64982093  1
  Be  Be35  1  0.01484325  0.23839142  0.90150105  1
  Be  Be36  1  0.49329279  0.23166335  0.15244023  1
  Be  Be37  1  0.51988792  0.22209714  0.42323919  1
  Be  Be38  1  0.50722433  0.29265525  0.63108459  1
  Be  Be39  1  0.50145646  0.18580174  0.89802468  1
  Be  Be40  1  0.18564762  0.46700636  0.13181225  1
  Be  Be41  1  0.25577029  0.45176752  0.39824723  1
  Be  Be42  1  0.23671285  0.54101462  0.64638413  1
  Be  Be43  1  0.28004695  0.53195170  0.85958490  1
  Be  Be44  1  0.97449731  0.68163570  0.13054274  1
  Be  Be45  1  0.97401898  0.72129484  0.33565352  1
  Be  Be46  1  0.02644733  0.75066611  0.59787334  1
  Be  Be47  1  0.99528695  0.76404468  0.85728784  1
  Be  Be48  1  0.71760805  0.52709323  0.09367913  1
  Be  Be49  1  0.75927261  0.50936409  0.35153034  1
  Be  Be50  1  0.81071019  0.46059125  0.62137754  1
  Be  Be51  1  0.71417391  0.47890245  0.87817104  1
  Be  Be52  1  0.50124542  0.69029282  0.09071874  1
  Be  Be53  1  0.48215893  0.76386269  0.33829483  1
  Be  Be54  1  0.56139943  0.73915416  0.59495887  1
  Be  Be55  1  0.50611078  0.80650677  0.83974006  1
  Be  Be56  1  0.22666013  0.96733052  0.14221281  1
  Be  Be57  1  0.25460944  0.94045867  0.33880467  1
  Be  Be58  1  0.29042413  0.99031115  0.60008494  1
  Be  Be59  1  0.24121554  0.04575726  0.87591132  1
  Be  Be60  1  0.73874504  0.96537972  0.10047632  1
  Be  Be61  1  0.74946894  0.04281034  0.38090482  1
  Be  Be62  1  0.73360975  0.97074859  0.58062877  1
  Be  Be63  1  0.74304100  0.94204775  0.84258143  1
  Cl  Cl64  1  0.01693913  0.24683488  0.00905070  1
  Cl  Cl65  1  0.99812586  0.25103445  0.28803043  1
  Cl  Cl66  1  0.00696765  0.26838155  0.46984285  1
  Cl  Cl67  1  0.99263065  0.26718001  0.74566910  1
  Cl  Cl68  1  0.49932058  0.24874800  0.98351270  1
  Cl  Cl69  1  0.51270151  0.25533803  0.25269339  1
  Cl  Cl70  1  0.50135496  0.21775906  0.53097586  1
  Cl  Cl71  1  0.50896187  0.23161939  0.72347574  1
  Cl  Cl72  1  0.23717884  0.47730996  0.03939551  1
  Cl  Cl73  1  0.25295395  0.48479232  0.21933138  1
  Cl  Cl74  1  0.25284987  0.52572781  0.47936982  1
  Cl  Cl75  1  0.25232026  0.51094628  0.75253524  1
  Cl  Cl76  1  0.98554731  0.74855923  0.04342726  1
  Cl  Cl77  1  0.97420342  0.74640454  0.22519595  1
  Cl  Cl78  1  0.01494036  0.75999820  0.49806468  1
  Cl  Cl79  1  0.00310182  0.77003107  0.75957231  1
  Cl  Cl80  1  0.74552918  0.52548962  0.99483860  1
  Cl  Cl81  1  0.74112196  0.49594900  0.25292713  1
  Cl  Cl82  1  0.76914142  0.50137060  0.53284178  1
  Cl  Cl83  1  0.77632433  0.49724179  0.71271660  1
  Cl  Cl84  1  0.50666862  0.75305055  0.00445003  1
  Cl  Cl85  1  0.48960677  0.76917119  0.23778523  1
  Cl  Cl86  1  0.48987328  0.73922651  0.51336171  1
  Cl  Cl87  1  0.50988372  0.74904216  0.75261257  1
  Cl  Cl88  1  0.25620914  0.99575148  0.96772797  1
  Cl  Cl89  1  0.26325939  0.00783893  0.25306376  1
  Cl  Cl90  1  0.24366198  0.00125856  0.50800157  1
  Cl  Cl91  1  0.23976405  0.99449230  0.78304000  1
  Cl  Cl92  1  0.74647143  0.02146367  0.01023876  1
  Cl  Cl93  1  0.74550080  0.98875754  0.28795295  1
  Cl  Cl94  1  0.74754447  0.95915392  0.47474971  1
  Cl  Cl95  1  0.73929927  0.99782328  0.75546385  1
  Cl  Cl96  1  0.16590246  0.09389358  0.12130077  1
  Cl  Cl97  1  0.15059233  0.13320387  0.38023103  1
  Cl  Cl98  1  0.10407632  0.16970762  0.61867924  1
  Cl  Cl99  1  0.11939950  0.13003482  0.87723587  1
  Cl  Cl100  1  0.62222911  0.16681239  0.12256711  1
  Cl  Cl101  1  0.61925799  0.11027404  0.39250334  1
  Cl  Cl102  1  0.65848716  0.08214602  0.60954974  1
  Cl  Cl103  1  0.61638613  0.11865011  0.87021469  1
  Cl  Cl104  1  0.42254205  0.35346756  0.12071694  1
  Cl  Cl105  1  0.37292850  0.39782574  0.36840201  1
  Cl  Cl106  1  0.38680147  0.36751533  0.62584959  1
  Cl  Cl107  1  0.32965967  0.40059691  0.88209526  1
  Cl  Cl108  1  0.09788014  0.59827068  0.13403358  1
  Cl  Cl109  1  0.09812737  0.65403664  0.35521545  1
  Cl  Cl110  1  0.13939082  0.65300610  0.63121941  1
  Cl  Cl111  1  0.15513426  0.59183828  0.88818736  1
  Cl  Cl112  1  0.88221891  0.37892169  0.11907094  1
  Cl  Cl113  1  0.83430059  0.39853150  0.38548342  1
  Cl  Cl114  1  0.92433493  0.37252428  0.61031493  1
  Cl  Cl115  1  0.84338589  0.42494917  0.86638791  1
  Cl  Cl116  1  0.62708937  0.64454018  0.12686178  1
  Cl  Cl117  1  0.64707770  0.57908801  0.38914204  1
  Cl  Cl118  1  0.61820853  0.62520642  0.62966668  1
  Cl  Cl119  1  0.65898821  0.60659390  0.85772749  1
  Cl  Cl120  1  0.34867781  0.89863041  0.11877161  1
  Cl  Cl121  1  0.37643484  0.89212591  0.37295864  1
  Cl  Cl122  1  0.34877531  0.87155460  0.63210246  1
  Cl  Cl123  1  0.39989791  0.87182075  0.87800222  1
  Cl  Cl124  1  0.85451147  0.91407509  0.13979821  1
  Cl  Cl125  1  0.91311840  0.84403082  0.36469204  1
  Cl  Cl126  1  0.84661929  0.90588914  0.61725215  1
  Cl  Cl127  1  0.86371864  0.90927073  0.88328286  1
  Cl  Cl128  1  0.91483108  0.15345216  0.13903467  1
  Cl  Cl129  1  0.86345654  0.12319617  0.38830696  1
  Cl  Cl130  1  0.87683259  0.14164339  0.62700113  1
  Cl  Cl131  1  0.89378848  0.16802863  0.88106637  1
  Cl  Cl132  1  0.39545158  0.12859639  0.13137107  1
  Cl  Cl133  1  0.40049689  0.15757323  0.39021555  1
  Cl  Cl134  1  0.33677497  0.10857193  0.63876627  1
  Cl  Cl135  1  0.37567134  0.14712945  0.85942792  1
  Cl  Cl136  1  0.10885857  0.33574860  0.14386717  1
  Cl  Cl137  1  0.13781179  0.39335950  0.36536804  1
  Cl  Cl138  1  0.16187100  0.42503179  0.61863712  1
  Cl  Cl139  1  0.08239184  0.35755199  0.87719065  1
  Cl  Cl140  1  0.84581740  0.60530014  0.13254156  1
  Cl  Cl141  1  0.87194271  0.62262418  0.36628011  1
  Cl  Cl142  1  0.91301663  0.66580879  0.62522515  1
  Cl  Cl143  1  0.90613926  0.66583316  0.88790636  1
  Cl  Cl144  1  0.64996187  0.41157551  0.11894327  1
  Cl  Cl145  1  0.59093650  0.33790008  0.39707855  1
  Cl  Cl146  1  0.62803187  0.36853219  0.62337334  1
  Cl  Cl147  1  0.61661002  0.37540728  0.86947468  1
  Cl  Cl148  1  0.38903986  0.62424053  0.11985251  1
  Cl  Cl149  1  0.40400791  0.65413370  0.36937882  1
  Cl  Cl150  1  0.35975501  0.60671243  0.62498863  1
  Cl  Cl151  1  0.38540224  0.62857003  0.87616575  1
  Cl  Cl152  1  0.12248859  0.87197999  0.13993387  1
  Cl  Cl153  1  0.13878575  0.88649805  0.36983665  1
  Cl  Cl154  1  0.09072330  0.87524553  0.62908124  1
  Cl  Cl155  1  0.09230997  0.84319814  0.90076667  1
  Cl  Cl156  1  0.62325580  0.89877808  0.12929996  1
  Cl  Cl157  1  0.59382988  0.82717908  0.38069323  1
  Cl  Cl158  1  0.61870552  0.86233763  0.62332196  1
  Cl  Cl159  1  0.63201587  0.86303537  0.87968729  1
