# generated using pymatgen
data_CsBeF3
_symmetry_space_group_name_H-M   'P 1'
_cell_length_a   11.41560541
_cell_length_b   11.41560541
_cell_length_c   16.14410300
_cell_angle_alpha   90.00000000
_cell_angle_beta   90.00000000
_cell_angle_gamma   90.00000000
_symmetry_Int_Tables_number   1
_chemical_formula_structural   CsBeF3
_chemical_formula_sum   'Cs32 Be32 F96'
_cell_volume   2103.83568502
_cell_formula_units_Z   32
loop_
 _symmetry_equiv_pos_site_id
 _symmetry_equiv_pos_as_xyz
  1  'x, y, z'
loop_
 _atom_site_type_symbol
 _atom_site_label
 _atom_site_symmetry_multiplicity
 _atom_site_fract_x
 _atom_site_fract_y
 _atom_site_fract_z
 _atom_site_occupancy
  Be  Be0  1  0.99764100  0.29034552  0.09305986  1
  Be  Be1  1  0.03152617  0.17317931  0.39323089  1
  Be  Be2  1  0.05584118  0.25038830  0.58773715  1
  Be  Be3  1  0.97614697  0.25848539  0.90149215  1
  Be  Be4  1  0.54003113  0.25890194  0.09546208  1
  Be  Be5  1  0.53291920  0.31717966  0.35827223  1
  Be  Be6  1  0.51220883  0.20312154  0.64278114  1
  Be  Be7  1  0.49088313  0.20651209  0.90056314  1
  Be  Be8  1  0.25730641  0.56158340  0.14342302  1
  Be  Be9  1  0.29904518  0.48107833  0.33329015  1
  Be  Be10  1  0.28652182  0.50538003  0.63930828  1
  Be  Be11  1  0.24586926  0.54341021  0.83043791  1
  Be  Be12  1  0.95223890  0.76797631  0.11928143  1
  Be  Be13  1  0.98322843  0.78741211  0.40081492  1
  Be  Be14  1  0.96391837  0.70641008  0.64607131  1
  Be  Be15  1  0.96024184  0.75985507  0.84002643  1
  Be  Be16  1  0.77216117  0.44745057  0.08141457  1
  Be  Be17  1  0.76330980  0.46072953  0.36241602  1
  Be  Be18  1  0.80124075  0.48690475  0.59486788  1
  Be  Be19  1  0.75990863  0.43160969  0.89773758  1
  Be  Be20  1  0.45080526  0.75684359  0.16857869  1
  Be  Be21  1  0.52576142  0.74268950  0.36084833  1
  Be  Be22  1  0.46099288  0.72214426  0.65612828  1
  Be  Be23  1  0.47603917  0.69986882  0.85007274  1
  Be  Be24  1  0.29319757  0.97546408  0.15481162  1
  Be  Be25  1  0.26802929  0.03702319  0.35491295  1
  Be  Be26  1  0.27105209  0.07083090  0.60825912  1
  Be  Be27  1  0.26941505  0.02370029  0.90524758  1
  Be  Be28  1  0.76991434  0.95772455  0.16215510  1
  Be  Be29  1  0.81433704  0.98774162  0.36101123  1
  Be  Be30  1  0.70709460  0.99888371  0.66020292  1
  Be  Be31  1  0.74846294  0.93253772  0.84500118  1
  Cs  Cs32  1  0.01074850  0.99204103  0.00007363  1
  Cs  Cs33  1  0.02524440  0.99548924  0.23627963  1
  Cs  Cs34  1  0.01503443  0.98005694  0.53500909  1
  Cs  Cs35  1  0.01214174  0.01673544  0.74635289  1
  Cs  Cs36  1  0.51963320  0.96885435  0.00795787  1
  Cs  Cs37  1  0.52398689  0.03205489  0.27193053  1
  Cs  Cs38  1  0.50907389  0.98624068  0.49276078  1
  Cs  Cs39  1  0.47316428  0.98296062  0.75919424  1
  Cs  Cs40  1  0.25370365  0.26004412  0.00477316  1
  Cs  Cs41  1  0.24616127  0.25769567  0.22494318  1
  Cs  Cs42  1  0.29291202  0.28993758  0.48580678  1
  Cs  Cs43  1  0.25431611  0.25276699  0.76013857  1
  Cs  Cs44  1  0.03782809  0.51722081  0.98242009  1
  Cs  Cs45  1  0.99727852  0.48780332  0.25123770  1
  Cs  Cs46  1  0.02613058  0.50806010  0.47243446  1
  Cs  Cs47  1  0.98928097  0.46155341  0.74273591  1
  Cs  Cs48  1  0.75322257  0.18243512  0.99470354  1
  Cs  Cs49  1  0.78893593  0.22837664  0.25048638  1
  Cs  Cs50  1  0.75355333  0.23028180  0.50719871  1
  Cs  Cs51  1  0.75986889  0.25056452  0.74450200  1
  Cs  Cs52  1  0.48425281  0.50216184  0.98983740  1
  Cs  Cs53  1  0.53615002  0.50754588  0.21263084  1
  Cs  Cs54  1  0.49336996  0.51397761  0.50293597  1
  Cs  Cs55  1  0.52506329  0.46005636  0.74875013  1
  Cs  Cs56  1  0.23538062  0.75187580  0.99028452  1
  Cs  Cs57  1  0.21504055  0.75486293  0.27842962  1
  Cs  Cs58  1  0.23903897  0.75718615  0.50192273  1
  Cs  Cs59  1  0.21538806  0.78513002  0.73230893  1
  Cs  Cs60  1  0.72148378  0.73349842  0.99131688  1
  Cs  Cs61  1  0.75565119  0.71245586  0.25410906  1
  Cs  Cs62  1  0.72525791  0.75268890  0.50478408  1
  Cs  Cs63  1  0.72757543  0.69958553  0.73772594  1
  F  F64  1  0.00089892  0.24907346  -0.00107524  1
  F  F65  1  0.03005118  0.24680317  0.31831260  1
  F  F66  1  0.02956588  0.22947376  0.48384701  1
  F  F67  1  0.07897523  0.31197954  0.86253793  1
  F  F68  1  0.51111171  0.22889957  0.00150378  1
  F  F69  1  0.55109631  0.27210926  0.27238785  1
  F  F70  1  0.55487466  0.30216734  0.59251217  1
  F  F71  1  0.49915186  0.22397747  0.73366147  1
  F  F72  1  0.28271905  0.48565212  0.07161328  1
  F  F73  1  0.28260174  0.50606283  0.23346064  1
  F  F74  1  0.24054246  0.52590807  0.55385353  1
  F  F75  1  0.23262206  0.50729359  0.73366091  1
  F  F76  1  0.98849552  0.74334839  0.03646822  1
  F  F77  1  0.99252496  0.74787591  0.20138348  1
  F  F78  1  0.97215951  0.75102843  0.48975890  1
  F  F79  1  0.97778870  0.70643612  0.74920879  1
  F  F80  1  0.76931996  0.48448361  0.98751431  1
  F  F81  1  0.75700386  0.46203706  0.26476175  1
  F  F82  1  0.73000643  0.50055528  0.51904465  1
  F  F83  1  0.77504143  0.50662716  0.82578116  1
  F  F84  1  0.45638067  0.76998197  0.92696462  1
  F  F85  1  0.46518588  0.75366319  0.26530559  1
  F  F86  1  0.45968401  0.75597392  0.44043625  1
  F  F87  1  0.47797791  0.74204776  0.75583483  1
  F  F88  1  0.26225598  0.99938819  0.99676652  1
  F  F89  1  0.26208126  0.00690866  0.25272271  1
  F  F90  1  0.26737694  0.00178277  0.53092922  1
  F  F91  1  0.24833770  0.01319325  0.68988315  1
  F  F92  1  0.77520429  0.97344933  0.93205170  1
  F  F93  1  0.78687831  0.97242940  0.26295526  1
  F  F94  1  0.71242159  0.03926045  0.40193096  1
  F  F95  1  0.73921617  0.00762740  0.75954439  1
  F  F96  1  0.01493277  0.18379743  0.14299590  1
  F  F97  1  0.14434502  0.09045705  0.38713167  1
  F  F98  1  0.16463237  0.15959175  0.60071339  1
  F  F99  1  0.16200640  0.08993642  0.87619209  1
  F  F100  1  0.60088411  0.15781349  0.13209033  1
  F  F101  1  0.52519196  0.23259204  0.42828040  1
  F  F102  1  0.61285112  0.10256971  0.63823982  1
  F  F103  1  0.59378349  0.13606114  0.87092071  1
  F  F104  1  0.43813823  0.32376538  0.12684562  1
  F  F105  1  0.41051479  0.39706652  0.34562940  1
  F  F106  1  0.35602411  0.39350305  0.63845603  1
  F  F107  1  0.43488178  0.31733337  0.87430978  1
  F  F108  1  0.13964825  0.61655706  0.13688137  1
  F  F109  1  0.00232749  0.68439786  0.34648350  1
  F  F110  1  0.08241454  0.66598457  0.62057124  1
  F  F111  1  0.14079751  0.61846158  0.84753145  1
  F  F112  1  0.87423043  0.35651788  0.10092730  1
  F  F113  1  0.85371842  0.36704410  0.38662642  1
  F  F114  1  0.89289929  0.39191314  0.58790410  1
  F  F115  1  0.87567275  0.35248377  0.89726127  1
  F  F116  1  0.55302713  0.71973505  0.11753515  1
  F  F117  1  0.58017138  0.62279388  0.35771782  1
  F  F118  1  0.56640367  0.66696514  0.61933580  1
  F  F119  1  0.58299795  0.62548901  0.86564564  1
  F  F120  1  0.39551443  0.87894672  0.15099001  1
  F  F121  1  0.31875240  0.92529302  0.38367927  1
  F  F122  1  0.41065122  0.83151206  0.61993682  1
  F  F123  1  0.29577616  0.91303918  0.85968651  1
  F  F124  1  0.85163767  0.85552800  0.12170588  1
  F  F125  1  0.86506177  0.86644146  0.38136052  1
  F  F126  1  0.80967015  0.03154909  0.60977961  1
  F  F127  1  0.86148894  0.85902895  0.82437859  1
  F  F128  1  0.82666435  0.06160272  0.12593558  1
  F  F129  1  0.91877032  0.08332298  0.38395539  1
  F  F130  1  0.96329736  0.20070064  0.64221937  1
  F  F131  1  0.92314464  0.14810889  0.86866266  1
  F  F132  1  0.34907726  0.08634339  0.12561315  1
  F  F133  1  0.34712245  0.14058752  0.35931928  1
  F  F134  1  0.39299754  0.14130181  0.61205473  1
  F  F135  1  0.38191180  0.11269193  0.89503147  1
  F  F136  1  0.09131745  0.37633073  0.11383009  1
  F  F137  1  0.18986417  0.41601101  0.35629563  1
  F  F138  1  0.11383077  0.36216821  0.60954674  1
  F  F139  1  0.25681773  0.44726727  0.89136939  1
  F  F140  1  0.79859230  0.56276007  0.12109799  1
  F  F141  1  0.80690438  0.57987115  0.38768254  1
  F  F142  1  0.87565610  0.60912536  0.61397140  1
  F  F143  1  0.90566704  0.66808180  0.89185561  1
  F  F144  1  0.65650840  0.37254150  0.09461422  1
  F  F145  1  0.63563607  0.40397039  0.38183311  1
  F  F146  1  0.72945012  0.46645552  0.67079245  1
  F  F147  1  0.65196428  0.35850398  0.89542803  1
  F  F148  1  0.35266858  0.66600051  0.14200520  1
  F  F149  1  0.31860734  0.59124226  0.37866910  1
  F  F150  1  0.36591954  0.62104666  0.65308174  1
  F  F151  1  0.36057056  0.61920340  0.84145072  1
  F  F152  1  0.18351212  0.91141897  0.12730753  1
  F  F153  1  0.07901620  0.87816055  0.38703085  1
  F  F154  1  0.91121233  0.82573167  0.63783595  1
  F  F155  1  0.06184658  0.83252337  0.87044368  1
  F  F156  1  0.65037678  0.91751009  0.14692278  1
  F  F157  1  0.61560124  0.84213848  0.35681297  1
  F  F158  1  0.64340488  0.88892530  0.64205426  1
  F  F159  1  0.63748182  0.86254089  0.85097249  1
