# generated using pymatgen
data_CsBrCl3
_symmetry_space_group_name_H-M   'P 1'
_cell_length_a   15.41083934
_cell_length_b   15.41083934
_cell_length_c   21.79421800
_cell_angle_alpha   90.00000000
_cell_angle_beta   90.00000000
_cell_angle_gamma   90.00000000
_symmetry_Int_Tables_number   1
_chemical_formula_structural   CsBrCl3
_chemical_formula_sum   'Cs32 Br32 Cl96'
_cell_volume   5175.99533659
_cell_formula_units_Z   32
loop_
 _symmetry_equiv_pos_site_id
 _symmetry_equiv_pos_as_xyz
  1  'x, y, z'
loop_
 _atom_site_type_symbol
 _atom_site_label
 _atom_site_symmetry_multiplicity
 _atom_site_fract_x
 _atom_site_fract_y
 _atom_site_fract_z
 _atom_site_occupancy
  Br  Br0  1  0.98852998  0.98605974  0.01159868  1
  Br  Br1  1  0.03564882  0.01066689  0.26997554  1
  Br  Br2  1  0.00236497  0.00835034  0.50949523  1
  Br  Br3  1  0.99316069  0.99343999  0.74958278  1
  Br  Br4  1  0.51703571  0.97869223  0.99143110  1
  Br  Br5  1  0.49690905  0.00154369  0.24687050  1
  Br  Br6  1  0.49401765  0.02503925  0.49802399  1
  Br  Br7  1  0.49933002  0.99298339  0.75077061  1
  Br  Br8  1  0.25609678  0.23908355  0.00058881  1
  Br  Br9  1  0.27066128  0.28740411  0.24795013  1
  Br  Br10  1  0.23681051  0.24687049  0.49788765  1
  Br  Br11  1  0.24542063  0.24161913  0.75085962  1
  Br  Br12  1  0.00248127  0.50913451  0.00398706  1
  Br  Br13  1  0.99054082  0.49745255  0.23500913  1
  Br  Br14  1  0.99930931  0.48713903  0.50372031  1
  Br  Br15  1  0.99654138  0.49557915  0.77009476  1
  Br  Br16  1  0.76107063  0.26302571  0.00204577  1
  Br  Br17  1  0.76164160  0.23740973  0.27275532  1
  Br  Br18  1  0.75933407  0.24779108  0.50217702  1
  Br  Br19  1  0.75305695  0.25012130  0.73916196  1
  Br  Br20  1  0.50842436  0.51206507  0.98796877  1
  Br  Br21  1  0.53384494  0.50632635  0.23865099  1
  Br  Br22  1  0.47618187  0.48593557  0.48992801  1
  Br  Br23  1  0.48954329  0.49380308  0.73850118  1
  Br  Br24  1  0.24482782  0.74857436  0.00022668  1
  Br  Br25  1  0.25620571  0.73715992  0.24955316  1
  Br  Br26  1  0.24002064  0.76766346  0.49931924  1
  Br  Br27  1  0.23932993  0.74490983  0.75081846  1
  Br  Br28  1  0.75591559  0.73751363  0.00170297  1
  Br  Br29  1  0.76603213  0.77838915  0.24828242  1
  Br  Br30  1  0.73702964  0.74964042  0.49754255  1
  Br  Br31  1  0.74357666  0.73848585  0.74989151  1
  Cl  Cl32  1  0.14518316  0.12987250  0.00767344  1
  Cl  Cl33  1  0.13785361  0.12105789  0.23847293  1
  Cl  Cl34  1  0.08184255  0.24499848  0.49944741  1
  Cl  Cl35  1  0.11089624  0.09304098  0.75726517  1
  Cl  Cl36  1  0.62699951  0.09618408  0.98970467  1
  Cl  Cl37  1  0.60526053  0.11438480  0.24397442  1
  Cl  Cl38  1  0.67288523  0.17362984  0.42806003  1
  Cl  Cl39  1  0.64385251  0.13571642  0.74479898  1
  Cl  Cl40  1  0.36913847  0.34601686  0.99271699  1
  Cl  Cl41  1  0.46139982  0.37798411  0.20590181  1
  Cl  Cl42  1  0.39223696  0.24961036  0.49557779  1
  Cl  Cl43  1  0.39237043  0.37607836  0.75506447  1
  Cl  Cl44  1  0.08287315  0.58625407  0.92762680  1
  Cl  Cl45  1  0.09137960  0.61723631  0.24706013  1
  Cl  Cl46  1  0.12848818  0.65450228  0.50435571  1
  Cl  Cl47  1  0.13013709  0.63521237  0.74642449  1
  Cl  Cl48  1  0.92514491  0.42992789  0.08081672  1
  Cl  Cl49  1  0.89410065  0.37598661  0.23297940  1
  Cl  Cl50  1  0.83983195  0.32430657  0.57938925  1
  Cl  Cl51  1  0.85884654  0.36251013  0.74155479  1
  Cl  Cl52  1  0.60016056  0.73978062  0.99987384  1
  Cl  Cl53  1  0.60858307  0.63554067  0.26943805  1
  Cl  Cl54  1  0.62362584  0.64186644  0.49453132  1
  Cl  Cl55  1  0.58608515  0.61372911  0.72614536  1
  Cl  Cl56  1  0.40146250  0.87445486  0.99174869  1
  Cl  Cl57  1  0.39059349  0.88546948  0.25054101  1
  Cl  Cl58  1  0.35337320  0.87598963  0.49491440  1
  Cl  Cl59  1  0.35185015  0.85531105  0.75593940  1
  Cl  Cl60  1  0.91063707  0.73657071  0.00408524  1
  Cl  Cl61  1  0.93478182  0.89976279  0.29517020  1
  Cl  Cl62  1  0.84962155  0.85555422  0.50223837  1
  Cl  Cl63  1  0.87621575  0.89171585  0.74186540  1
  Cl  Cl64  1  0.88525225  0.10460636  0.00272832  1
  Cl  Cl65  1  0.86072922  0.12090019  0.25352289  1
  Cl  Cl66  1  0.92142990  0.08701778  0.58475393  1
  Cl  Cl67  1  0.86471122  0.14282493  0.74470977  1
  Cl  Cl68  1  0.36426324  0.12589166  0.99533968  1
  Cl  Cl69  1  0.38331349  0.10656351  0.22924941  1
  Cl  Cl70  1  0.23830749  0.09184739  0.49622815  1
  Cl  Cl71  1  0.39767473  0.10897754  0.76394522  1
  Cl  Cl72  1  0.14885298  0.35036737  0.00464407  1
  Cl  Cl73  1  0.11178829  0.40051285  0.23069814  1
  Cl  Cl74  1  0.23558071  0.40227864  0.50310173  1
  Cl  Cl75  1  0.10644822  0.38819151  0.78495847  1
  Cl  Cl76  1  0.75426503  0.58293141  0.00490441  1
  Cl  Cl77  1  0.86799075  0.59703606  0.23980258  1
  Cl  Cl78  1  0.84722371  0.63393243  0.50306694  1
  Cl  Cl79  1  0.88681734  0.60060542  0.75066030  1
  Cl  Cl80  1  0.61340630  0.39718473  0.99984210  1
  Cl  Cl81  1  0.66740798  0.35823964  0.28767222  1
  Cl  Cl82  1  0.58911992  0.38302005  0.47562492  1
  Cl  Cl83  1  0.63904699  0.35840866  0.73650871  1
  Cl  Cl84  1  0.39540051  0.61812427  0.97455332  1
  Cl  Cl85  1  0.35815827  0.61939476  0.26049503  1
  Cl  Cl86  1  0.36970564  0.59919801  0.50608244  1
  Cl  Cl87  1  0.34866677  0.63298246  0.75857467  1
  Cl  Cl88  1  0.09618369  0.87590232  0.02087887  1
  Cl  Cl89  1  0.15897711  0.85529523  0.23762397  1
  Cl  Cl90  1  0.08144505  0.92488083  0.43551946  1
  Cl  Cl91  1  0.13118346  0.85454315  0.74272758  1
  Cl  Cl92  1  0.75794645  0.89351908  0.99561092  1
  Cl  Cl93  1  0.60612354  0.89425990  0.26189085  1
  Cl  Cl94  1  0.62752750  0.86403721  0.49218826  1
  Cl  Cl95  1  0.59964084  0.87669415  0.74009628  1
  Cl  Cl96  1  0.98359415  0.99808741  0.12260384  1
  Cl  Cl97  1  0.92899349  0.08610592  0.43006656  1
  Cl  Cl98  1  0.07294435  0.92848985  0.58972066  1
  Cl  Cl99  1  0.99538266  0.98112666  0.89997510  1
  Cl  Cl100  1  0.51738467  0.98030363  0.10427296  1
  Cl  Cl101  1  0.48464713  0.04057050  0.38965130  1
  Cl  Cl102  1  0.49886906  0.00523331  0.60704649  1
  Cl  Cl103  1  0.51428241  0.98158125  0.88323316  1
  Cl  Cl104  1  0.28407304  0.26625345  0.14049388  1
  Cl  Cl105  1  0.25127984  0.30266172  0.35625554  1
  Cl  Cl106  1  0.25443756  0.25084440  0.64134902  1
  Cl  Cl107  1  0.24061565  0.23255035  0.85933947  1
  Cl  Cl108  1  0.07922239  0.58642166  0.08216153  1
  Cl  Cl109  1  0.99114416  0.48876786  0.39181446  1
  Cl  Cl110  1  0.01062260  0.48961320  0.61290421  1
  Cl  Cl111  1  0.92658821  0.42809767  0.92666297  1
  Cl  Cl112  1  0.75569463  0.25587333  0.11242173  1
  Cl  Cl113  1  0.83779522  0.32440291  0.42569312  1
  Cl  Cl114  1  0.68029125  0.17542960  0.58230034  1
  Cl  Cl115  1  0.76116330  0.26257037  0.89149811  1
  Cl  Cl116  1  0.50798660  0.53732635  0.09640928  1
  Cl  Cl117  1  0.45788661  0.50204811  0.38057386  1
  Cl  Cl118  1  0.49111979  0.47411753  0.59915383  1
  Cl  Cl119  1  0.51045241  0.48944799  0.87829237  1
  Cl  Cl120  1  0.28358613  0.73064755  0.10481998  1
  Cl  Cl121  1  0.23666414  0.76293335  0.38906172  1
  Cl  Cl122  1  0.25206790  0.76441609  0.60937015  1
  Cl  Cl123  1  0.20716724  0.77243272  0.89483368  1
  Cl  Cl124  1  0.75056159  0.80463481  0.14183355  1
  Cl  Cl125  1  0.77525006  0.75074525  0.35609198  1
  Cl  Cl126  1  0.74697812  0.73943681  0.63999262  1
  Cl  Cl127  1  0.73940389  0.73908198  0.85843740  1
  Cs  Cs128  1  0.00493710  0.22985458  0.12847698  1
  Cs  Cs129  1  0.02042657  0.25484162  0.34438367  1
  Cs  Cs130  1  0.02846466  0.26199843  0.65564428  1
  Cs  Cs131  1  0.00283303  0.22528345  0.87795098  1
  Cs  Cs132  1  0.51557509  0.22208184  0.10513252  1
  Cs  Cs133  1  0.48295586  0.26473954  0.34768248  1
  Cs  Cs134  1  0.48536511  0.24066550  0.64035710  1
  Cs  Cs135  1  0.51756699  0.24443803  0.87073642  1
  Cs  Cs136  1  0.28174784  0.49665214  0.13032674  1
  Cs  Cs137  1  0.22212032  0.52516196  0.37076753  1
  Cs  Cs138  1  0.24955483  0.49527292  0.64471424  1
  Cs  Cs139  1  0.26772126  0.48119408  0.87471085  1
  Cs  Cs140  1  0.98098836  0.77098358  0.15546739  1
  Cs  Cs141  1  0.99614059  0.72437211  0.38150819  1
  Cs  Cs142  1  0.98389227  0.72580907  0.62826490  1
  Cs  Cs143  1  0.98188628  0.75749613  0.85305149  1
  Cs  Cs144  1  0.72267072  0.47609547  0.14568608  1
  Cs  Cs145  1  0.74850346  0.52065368  0.37558988  1
  Cs  Cs146  1  0.73689671  0.51100223  0.62546245  1
  Cs  Cs147  1  0.73848862  0.49923942  0.85319667  1
  Cs  Cs148  1  0.50905830  0.75283778  0.14552000  1
  Cs  Cs149  1  0.47804972  0.74670420  0.37679932  1
  Cs  Cs150  1  0.48959145  0.75958091  0.61763121  1
  Cs  Cs151  1  0.50113092  0.74255607  0.85558683  1
  Cs  Cs152  1  0.25989494  0.97653724  0.11997926  1
  Cs  Cs153  1  0.25733568  0.00433639  0.35122269  1
  Cs  Cs154  1  0.26981535  0.00726831  0.64437989  1
  Cs  Cs155  1  0.24911337  0.99421798  0.87427588  1
  Cs  Cs156  1  0.74848465  0.02660342  0.12924882  1
  Cs  Cs157  1  0.74967166  0.98327760  0.36755549  1
  Cs  Cs158  1  0.73364624  0.97137861  0.62767692  1
  Cs  Cs159  1  0.75428827  0.00539979  0.85838175  1
