# generated using pymatgen
data_CsCaF3
_symmetry_space_group_name_H-M   'P 1'
_cell_length_a   12.96400946
_cell_length_b   12.96400946
_cell_length_c   18.33387800
_cell_angle_alpha   90.00000000
_cell_angle_beta   90.00000000
_cell_angle_gamma   90.00000000
_symmetry_Int_Tables_number   1
_chemical_formula_structural   CsCaF3
_chemical_formula_sum   'Cs32 Ca32 F96'
_cell_volume   3081.29312945
_cell_formula_units_Z   32
loop_
 _symmetry_equiv_pos_site_id
 _symmetry_equiv_pos_as_xyz
  1  'x, y, z'
loop_
 _atom_site_type_symbol
 _atom_site_label
 _atom_site_symmetry_multiplicity
 _atom_site_fract_x
 _atom_site_fract_y
 _atom_site_fract_z
 _atom_site_occupancy
  Ca  Ca0  1  -0.00027484  0.25075830  0.12455396  1
  Ca  Ca1  1  -0.00038686  0.25062430  0.37460038  1
  Ca  Ca2  1  0.99945009  0.25075954  0.62459740  1
  Ca  Ca3  1  -0.00036153  0.25094117  0.87461985  1
  Ca  Ca4  1  0.49968562  0.25074086  0.12467382  1
  Ca  Ca5  1  0.49957171  0.25063028  0.37469176  1
  Ca  Ca6  1  0.49947633  0.25080194  0.62462335  1
  Ca  Ca7  1  0.49966093  0.25097481  0.87467580  1
  Ca  Ca8  1  0.24971970  0.50075890  0.12458229  1
  Ca  Ca9  1  0.24967839  0.50057162  0.37462023  1
  Ca  Ca10  1  0.24945291  0.50082278  0.62464182  1
  Ca  Ca11  1  0.24959827  0.50099793  0.87464910  1
  Ca  Ca12  1  -0.00027165  0.75079226  0.12461342  1
  Ca  Ca13  1  -0.00036989  0.75064565  0.37464840  1
  Ca  Ca14  1  -0.00051922  0.75082556  0.62459836  1
  Ca  Ca15  1  0.99965438  0.75101713  0.87467108  1
  Ca  Ca16  1  0.74967688  0.50081292  0.12456525  1
  Ca  Ca17  1  0.74970244  0.50060506  0.37461815  1
  Ca  Ca18  1  0.74947789  0.50073980  0.62464948  1
  Ca  Ca19  1  0.74968236  0.50093927  0.87468461  1
  Ca  Ca20  1  0.49971418  0.75079736  0.12459055  1
  Ca  Ca21  1  0.49966814  0.75050490  0.37464743  1
  Ca  Ca22  1  0.49954683  0.75076112  0.62459208  1
  Ca  Ca23  1  0.49967438  0.75099588  0.87461169  1
  Ca  Ca24  1  0.24970721  0.00077611  0.12466915  1
  Ca  Ca25  1  0.24960722  0.00058194  0.37467120  1
  Ca  Ca26  1  0.24952803  0.00071475  0.62455463  1
  Ca  Ca27  1  0.24961471  0.00099980  0.87460892  1
  Ca  Ca28  1  0.74966337  0.00081196  0.12462288  1
  Ca  Ca29  1  0.74964629  0.00064692  0.37464461  1
  Ca  Ca30  1  0.74954267  0.00077467  0.62460087  1
  Ca  Ca31  1  0.74964323  0.00096534  0.87463358  1
  Cs  Cs32  1  -0.00041950  0.00096281  -0.00038385  1
  Cs  Cs33  1  -0.00025176  0.00066797  0.24962697  1
  Cs  Cs34  1  0.99950572  0.00071635  0.49962672  1
  Cs  Cs35  1  -0.00034049  0.00091674  0.74956978  1
  Cs  Cs36  1  0.49971953  0.00095784  0.99960965  1
  Cs  Cs37  1  0.49971581  0.00057148  0.24973641  1
  Cs  Cs38  1  0.49955835  0.00065610  0.49965014  1
  Cs  Cs39  1  0.49968258  0.00086096  0.74958845  1
  Cs  Cs40  1  0.24968980  0.25094344  0.99961114  1
  Cs  Cs41  1  0.24981513  0.25061758  0.24964638  1
  Cs  Cs42  1  0.24942772  0.25073540  0.49965861  1
  Cs  Cs43  1  0.24963805  0.25093976  0.74963826  1
  Cs  Cs44  1  -0.00032501  0.50091820  -0.00038502  1
  Cs  Cs45  1  0.99984412  0.50068173  0.24959846  1
  Cs  Cs46  1  -0.00042330  0.50078946  0.49957722  1
  Cs  Cs47  1  -0.00039468  0.50085132  0.74968850  1
  Cs  Cs48  1  0.74972875  0.25096639  -0.00032958  1
  Cs  Cs49  1  0.74967868  0.25068556  0.24970007  1
  Cs  Cs50  1  0.74955575  0.25068900  0.49963642  1
  Cs  Cs51  1  0.74966010  0.25094854  0.74964419  1
  Cs  Cs52  1  0.49970971  0.50103023  0.99963528  1
  Cs  Cs53  1  0.49980911  0.50063161  0.24959038  1
  Cs  Cs54  1  0.49961776  0.50069890  0.49966483  1
  Cs  Cs55  1  0.49965670  0.50090291  0.74969166  1
  Cs  Cs56  1  0.24974115  0.75103597  -0.00040374  1
  Cs  Cs57  1  0.24971856  0.75061808  0.24962825  1
  Cs  Cs58  1  0.24955997  0.75058876  0.49964039  1
  Cs  Cs59  1  0.24963382  0.75089996  0.74961834  1
  Cs  Cs60  1  0.74977712  0.75104292  -0.00036356  1
  Cs  Cs61  1  0.74972034  0.75063384  0.24963254  1
  Cs  Cs62  1  0.74962406  0.75066654  0.49963508  1
  Cs  Cs63  1  0.74967955  0.75089329  0.74964850  1
  F  F64  1  0.00014271  0.25082528  -0.00043621  1
  F  F65  1  -0.00060362  0.25048505  0.24958050  1
  F  F66  1  0.99964180  0.25093678  0.49960816  1
  F  F67  1  0.99939274  0.25066643  0.74960894  1
  F  F68  1  0.50021890  0.25082844  0.99968655  1
  F  F69  1  0.49922686  0.25023752  0.24967010  1
  F  F70  1  0.49969797  0.25112613  0.49965018  1
  F  F71  1  0.49924230  0.25068551  0.74965155  1
  F  F72  1  0.24920920  0.50065448  -0.00039390  1
  F  F73  1  0.25014391  0.50083399  0.24960571  1
  F  F74  1  0.24939096  0.50039795  0.49965556  1
  F  F75  1  0.24986119  0.50108631  0.74964003  1
  F  F76  1  0.00019635  0.75093320  -0.00038373  1
  F  F77  1  0.99903566  0.75049418  0.24962849  1
  F  F78  1  0.00010360  0.75087666  0.49961167  1
  F  F79  1  -0.00104346  0.75095452  0.74964576  1
  F  F80  1  0.74932031  0.50044474  -0.00034849  1
  F  F81  1  0.75009198  0.50098853  0.24960426  1
  F  F82  1  0.74935865  0.50020572  0.49964733  1
  F  F83  1  0.74978463  0.50113352  0.74967466  1
  F  F84  1  0.49990152  0.75138764  -0.00042137  1
  F  F85  1  0.49928114  0.75017440  0.24963320  1
  F  F86  1  0.50003588  0.75064143  0.49960611  1
  F  F87  1  0.49927443  0.75050577  0.74961922  1
  F  F88  1  0.24941235  0.00063722  -0.00037366  1
  F  F89  1  0.25013501  0.00105619  0.24965073  1
  F  F90  1  0.24921404  0.00012893  0.49959869  1
  F  F91  1  0.24993718  0.00114671  0.74959210  1
  F  F92  1  0.74913135  0.00076269  -0.00036681  1
  F  F93  1  0.75013557  0.00089267  0.24965265  1
  F  F94  1  0.74941014  0.00040784  0.49959555  1
  F  F95  1  0.74996665  0.00097739  0.74960402  1
  F  F96  1  0.12483830  0.12583985  0.12484115  1
  F  F97  1  0.12447034  0.12541387  0.37474618  1
  F  F98  1  0.12447767  0.12571882  0.62437424  1
  F  F99  1  0.12457710  0.12591275  0.87440953  1
  F  F100  1  0.62476099  0.12585729  0.12494380  1
  F  F101  1  0.62450212  0.12551268  0.37484488  1
  F  F102  1  0.62445593  0.12573549  0.62440279  1
  F  F103  1  0.62456822  0.12586928  0.87434693  1
  F  F104  1  0.37459298  0.37565717  0.12430421  1
  F  F105  1  0.37474953  0.37568778  0.37451691  1
  F  F106  1  0.37441428  0.37577193  0.62475600  1
  F  F107  1  0.37480554  0.37615003  0.87492079  1
  F  F108  1  0.12492428  0.62591783  0.12480002  1
  F  F109  1  0.12456938  0.62547446  0.37443928  1
  F  F110  1  0.12433971  0.62567067  0.62479801  1
  F  F111  1  0.12462423  0.62598070  0.87446276  1
  F  F112  1  0.87455798  0.37567537  0.12438114  1
  F  F113  1  0.87481457  0.37576777  0.37441444  1
  F  F114  1  0.87448517  0.37578635  0.62472308  1
  F  F115  1  0.87475866  0.37607923  0.87479336  1
  F  F116  1  0.62482070  0.62589686  0.12440461  1
  F  F117  1  0.62466052  0.62550259  0.37446569  1
  F  F118  1  0.62436594  0.62556250  0.62470287  1
  F  F119  1  0.62464079  0.62590330  0.87480809  1
  F  F120  1  0.37463958  0.87564829  0.12473603  1
  F  F121  1  0.37461276  0.87546070  0.37472704  1
  F  F122  1  0.37464737  0.87578000  0.62439624  1
  F  F123  1  0.37481574  0.87618931  0.87448682  1
  F  F124  1  0.87458195  0.87571505  0.12424468  1
  F  F125  1  0.87464206  0.87565134  0.37480392  1
  F  F126  1  0.87461139  0.87589310  0.62429820  1
  F  F127  1  0.87477492  0.87609351  0.87496350  1
  F  F128  1  0.87480744  0.12567724  0.12407565  1
  F  F129  1  0.87455186  0.12572763  0.37487515  1
  F  F130  1  0.87447678  0.12575102  0.62429073  1
  F  F131  1  0.87451482  0.12610534  0.87490264  1
  F  F132  1  0.37487298  0.12567394  0.12409362  1
  F  F133  1  0.37452473  0.12556946  0.37525930  1
  F  F134  1  0.37442505  0.12579784  0.62414108  1
  F  F135  1  0.37446203  0.12616143  0.87496000  1
  F  F136  1  0.12459104  0.37587136  0.12487225  1
  F  F137  1  0.12482093  0.37537703  0.37434995  1
  F  F138  1  0.12443647  0.37576816  0.62479518  1
  F  F139  1  0.12476342  0.37586929  0.87428603  1
  F  F140  1  0.87487849  0.62560304  0.12412530  1
  F  F141  1  0.87467806  0.62563606  0.37506139  1
  F  F142  1  0.87435397  0.62590463  0.62417896  1
  F  F143  1  0.87457421  0.62608894  0.87498006  1
  F  F144  1  0.62457274  0.37582102  0.12517423  1
  F  F145  1  0.62485448  0.37536340  0.37419837  1
  F  F146  1  0.62445209  0.37568857  0.62503305  1
  F  F147  1  0.62470796  0.37590653  0.87427101  1
  F  F148  1  0.37490746  0.62559698  0.12398277  1
  F  F149  1  0.37470672  0.62551823  0.37494638  1
  F  F150  1  0.37441307  0.62593406  0.62427229  1
  F  F151  1  0.37451899  0.62614057  0.87503144  1
  F  F152  1  0.12460129  0.87586655  0.12507996  1
  F  F153  1  0.12472433  0.87547276  0.37408781  1
  F  F154  1  0.12464349  0.87564313  0.62507398  1
  F  F155  1  0.12474011  0.87593497  0.87427849  1
  F  F156  1  0.62456492  0.87585544  0.12505324  1
  F  F157  1  0.62471042  0.87550005  0.37427943  1
  F  F158  1  0.62469979  0.87563594  0.62493652  1
  F  F159  1  0.62477392  0.87586425  0.87415507  1
