# generated using pymatgen
data_CsCdCl3
_symmetry_space_group_name_H-M   'P 1'
_cell_length_a   15.08480654
_cell_length_b   15.08480654
_cell_length_c   21.33313700
_cell_angle_alpha   90.00000000
_cell_angle_beta   90.00000000
_cell_angle_gamma   90.00000000
_symmetry_Int_Tables_number   1
_chemical_formula_structural   CsCdCl3
_chemical_formula_sum   'Cs32 Cd32 Cl96'
_cell_volume   4854.38494463
_cell_formula_units_Z   32
loop_
 _symmetry_equiv_pos_site_id
 _symmetry_equiv_pos_as_xyz
  1  'x, y, z'
loop_
 _atom_site_type_symbol
 _atom_site_label
 _atom_site_symmetry_multiplicity
 _atom_site_fract_x
 _atom_site_fract_y
 _atom_site_fract_z
 _atom_site_occupancy
  Cd  Cd0  1  -0.00010399  0.24974474  0.12427157  1
  Cd  Cd1  1  -0.00003120  0.24971402  0.37426787  1
  Cd  Cd2  1  -0.00009089  0.24971125  0.62427433  1
  Cd  Cd3  1  -0.00009678  0.24968190  0.87428328  1
  Cd  Cd4  1  0.49993208  0.24969209  0.12428313  1
  Cd  Cd5  1  0.49995014  0.24971871  0.37427138  1
  Cd  Cd6  1  0.49991257  0.24971181  0.62429034  1
  Cd  Cd7  1  0.49990589  0.24968796  0.87426146  1
  Cd  Cd8  1  0.24991309  0.49963711  0.12571365  1
  Cd  Cd9  1  0.24992298  0.49967809  0.37571651  1
  Cd  Cd10  1  0.24993026  0.49971857  0.62571347  1
  Cd  Cd11  1  0.24988651  0.49970894  0.87573576  1
  Cd  Cd12  1  -0.00007401  0.74966446  0.12428311  1
  Cd  Cd13  1  -0.00010106  0.74973667  0.37427358  1
  Cd  Cd14  1  -0.00004724  0.74972263  0.62429346  1
  Cd  Cd15  1  -0.00008856  0.74969940  0.87426376  1
  Cd  Cd16  1  0.74988602  0.49970556  0.12425485  1
  Cd  Cd17  1  0.74993139  0.49970695  0.37426787  1
  Cd  Cd18  1  0.74991503  0.49972442  0.62424822  1
  Cd  Cd19  1  0.74992144  0.49972286  0.87425556  1
  Cd  Cd20  1  0.49991967  0.74968764  0.12426692  1
  Cd  Cd21  1  0.49990148  0.74971287  0.37425818  1
  Cd  Cd22  1  0.49990318  0.74971648  0.62426160  1
  Cd  Cd23  1  0.49993194  0.74972131  0.87424681  1
  Cd  Cd24  1  0.24990256  0.99970371  0.12424529  1
  Cd  Cd25  1  0.24989537  -0.00028208  0.37424156  1
  Cd  Cd26  1  0.24993188  0.99970336  0.62424078  1
  Cd  Cd27  1  0.24990511  -0.00027598  0.87425959  1
  Cd  Cd28  1  0.74991269  -0.00032281  0.12425729  1
  Cd  Cd29  1  0.74995895  -0.00029571  0.37424957  1
  Cd  Cd30  1  0.74991859  -0.00027382  0.62425797  1
  Cd  Cd31  1  0.74987948  -0.00028208  0.87425407  1
  Cl  Cl32  1  0.99948086  0.25010288  0.99960251  1
  Cl  Cl33  1  0.99981437  0.24830839  0.24946929  1
  Cl  Cl34  1  -0.00021796  0.24981436  0.49964534  1
  Cl  Cl35  1  -0.00026795  0.24851489  0.74952874  1
  Cl  Cl36  1  0.50097978  0.24904862  -0.00039840  1
  Cl  Cl37  1  0.49870704  0.24926057  0.24957311  1
  Cl  Cl38  1  0.50091823  0.24904301  0.49960278  1
  Cl  Cl39  1  0.49870711  0.24926033  0.74958539  1
  Cl  Cl40  1  0.24863197  0.49955260  0.00046424  1
  Cl  Cl41  1  0.25068869  0.49872894  0.25041874  1
  Cl  Cl42  1  0.24887106  0.49936016  0.50041808  1
  Cl  Cl43  1  0.25086009  0.49898416  0.75040575  1
  Cl  Cl44  1  0.00089192  0.74896341  -0.00038549  1
  Cl  Cl45  1  0.99863291  0.74931978  0.24959471  1
  Cl  Cl46  1  0.00088645  0.74900411  0.49959583  1
  Cl  Cl47  1  0.99881887  0.74927239  0.74956287  1
  Cl  Cl48  1  0.74956011  0.49839414  -0.00056246  1
  Cl  Cl49  1  0.74980949  0.50017093  0.24962671  1
  Cl  Cl50  1  0.74976278  0.49835854  0.49944034  1
  Cl  Cl51  1  0.74993976  0.50008508  0.74957523  1
  Cl  Cl52  1  0.49989976  0.74976480  -0.00035888  1
  Cl  Cl53  1  0.49986273  0.74846484  0.24957077  1
  Cl  Cl54  1  0.49953817  0.75017929  0.49961865  1
  Cl  Cl55  1  0.49954435  0.74857071  0.74952355  1
  Cl  Cl56  1  0.24971513  0.99822861  -0.00055834  1
  Cl  Cl57  1  0.24955605  0.00035574  0.24958290  1
  Cl  Cl58  1  0.24957725  0.99847492  0.49944310  1
  Cl  Cl59  1  0.24997437  0.99986793  0.74962162  1
  Cl  Cl60  1  0.74871970  -0.00070590  -0.00045048  1
  Cl  Cl61  1  0.75080785  -0.00108395  0.24954661  1
  Cl  Cl62  1  0.74895140  -0.00066141  0.49957052  1
  Cl  Cl63  1  0.75075092  -0.00101188  0.74952759  1
  Cl  Cl64  1  0.12397719  0.12343026  0.12405888  1
  Cl  Cl65  1  0.12479314  0.12456860  0.37512630  1
  Cl  Cl66  1  0.12465769  0.12421480  0.62453926  1
  Cl  Cl67  1  0.12482203  0.12457838  0.87509878  1
  Cl  Cl68  1  0.62412477  0.12369951  0.12547077  1
  Cl  Cl69  1  0.62478709  0.12436303  0.37426081  1
  Cl  Cl70  1  0.62451483  0.12417379  0.62542064  1
  Cl  Cl71  1  0.62472863  0.12429465  0.87422715  1
  Cl  Cl72  1  0.37544147  0.37508483  0.12448286  1
  Cl  Cl73  1  0.37471643  0.37428776  0.37576228  1
  Cl  Cl74  1  0.37501748  0.37461655  0.62465862  1
  Cl  Cl75  1  0.37464571  0.37429743  0.87576177  1
  Cl  Cl76  1  0.12406315  0.62352968  0.12592843  1
  Cl  Cl77  1  0.12486046  0.62439946  0.37452833  1
  Cl  Cl78  1  0.12462892  0.62423219  0.62567367  1
  Cl  Cl79  1  0.12487643  0.62443634  0.87450391  1
  Cl  Cl80  1  0.87523839  0.37509432  0.12515562  1
  Cl  Cl81  1  0.87475685  0.37421746  0.37434232  1
  Cl  Cl82  1  0.87493165  0.37459789  0.62503983  1
  Cl  Cl83  1  0.87468662  0.37429214  0.87437532  1
  Cl  Cl84  1  0.62428796  0.62369361  0.12449957  1
  Cl  Cl85  1  0.62477116  0.62449803  0.37530220  1
  Cl  Cl86  1  0.62456361  0.62417222  0.62440426  1
  Cl  Cl87  1  0.62484321  0.62453226  0.87506243  1
  Cl  Cl88  1  0.37526471  0.87505305  0.12526027  1
  Cl  Cl89  1  0.37472463  0.87436495  0.37441207  1
  Cl  Cl90  1  0.37485011  0.87469066  0.62508853  1
  Cl  Cl91  1  0.37481395  0.87428792  0.87465386  1
  Cl  Cl92  1  0.87546019  0.87506283  0.12421732  1
  Cl  Cl93  1  0.87474869  0.87435167  0.37538988  1
  Cl  Cl94  1  0.87485917  0.87439920  0.62430077  1
  Cl  Cl95  1  0.87472726  0.87440643  0.87533773  1
  Cl  Cl96  1  0.87421922  0.12508306  0.12434414  1
  Cl  Cl97  1  0.87496013  0.12443055  0.37511254  1
  Cl  Cl98  1  0.87469747  0.12461744  0.62452712  1
  Cl  Cl99  1  0.87492317  0.12446374  0.87511021  1
  Cl  Cl100  1  0.37419084  0.12512445  0.12426592  1
  Cl  Cl101  1  0.37497012  0.12446104  0.37518719  1
  Cl  Cl102  1  0.37460220  0.12468335  0.62440416  1
  Cl  Cl103  1  0.37494940  0.12443157  0.87527280  1
  Cl  Cl104  1  0.12556998  0.37352868  0.12541033  1
  Cl  Cl105  1  0.12486630  0.37448502  0.37482913  1
  Cl  Cl106  1  0.12510954  0.37428448  0.62546553  1
  Cl  Cl107  1  0.12477165  0.37461090  0.87485009  1
  Cl  Cl108  1  0.87430262  0.62503246  0.12429916  1
  Cl  Cl109  1  0.87504338  0.62435204  0.37520529  1
  Cl  Cl110  1  0.87468884  0.62458082  0.62434465  1
  Cl  Cl111  1  0.87499539  0.62444098  0.87523439  1
  Cl  Cl112  1  0.62555188  0.37376551  0.12537144  1
  Cl  Cl113  1  0.62495610  0.37431276  0.37437229  1
  Cl  Cl114  1  0.62512180  0.37430283  0.62530234  1
  Cl  Cl115  1  0.62484277  0.37440945  0.87428836  1
  Cl  Cl116  1  0.37445497  0.62500199  0.12496745  1
  Cl  Cl117  1  0.37495741  0.62436255  0.37540955  1
  Cl  Cl118  1  0.37475356  0.62464590  0.62482233  1
  Cl  Cl119  1  0.37504294  0.62427272  0.87560773  1
  Cl  Cl120  1  0.12562751  0.87355024  0.12530775  1
  Cl  Cl121  1  0.12491432  0.87435576  0.37432931  1
  Cl  Cl122  1  0.12501466  0.87441509  0.62518014  1
  Cl  Cl123  1  0.12479925  0.87448445  0.87439630  1
  Cl  Cl124  1  0.62548211  0.87378282  0.12539994  1
  Cl  Cl125  1  0.62483684  0.87457873  0.37468006  1
  Cl  Cl126  1  0.62504865  0.87430862  0.62524858  1
  Cl  Cl127  1  0.62486161  0.87441250  0.87448886  1
  Cs  Cs128  1  0.99977793  -0.00059079  0.99962608  1
  Cs  Cs129  1  -0.00018598  -0.00059035  0.24962731  1
  Cs  Cs130  1  -0.00020094  -0.00060104  0.49964748  1
  Cs  Cs131  1  -0.00018562  -0.00057003  0.74964780  1
  Cs  Cs132  1  0.49978069  0.99939444  0.99982593  1
  Cs  Cs133  1  0.49979182  -0.00053302  0.24982057  1
  Cs  Cs134  1  0.49980262  0.99949869  0.49975841  1
  Cs  Cs135  1  0.49978892  0.99945536  0.74979045  1
  Cs  Cs136  1  0.24973405  0.24942084  0.99993152  1
  Cs  Cs137  1  0.24977305  0.24941659  0.24987498  1
  Cs  Cs138  1  0.24976838  0.24941480  0.49995411  1
  Cs  Cs139  1  0.24984095  0.24941224  0.74998305  1
  Cs  Cs140  1  0.99969043  0.49943009  -0.00003973  1
  Cs  Cs141  1  -0.00021293  0.49936619  0.24994963  1
  Cs  Cs142  1  -0.00023125  0.49944579  0.49992315  1
  Cs  Cs143  1  -0.00016575  0.49940805  0.74995736  1
  Cs  Cs144  1  0.74976634  0.24938319  0.99968017  1
  Cs  Cs145  1  0.74983241  0.24940724  0.24973584  1
  Cs  Cs146  1  0.74986718  0.24944799  0.49972927  1
  Cs  Cs147  1  0.74979699  0.24947221  0.74973939  1
  Cs  Cs148  1  0.49979170  0.49943853  0.00000501  1
  Cs  Cs149  1  0.49979712  0.49937947  0.25004230  1
  Cs  Cs150  1  0.49975534  0.49943106  0.49998853  1
  Cs  Cs151  1  0.49986179  0.49941508  0.74994991  1
  Cs  Cs152  1  0.24987885  0.74932929  0.00002661  1
  Cs  Cs153  1  0.24977636  0.74941032  0.25001595  1
  Cs  Cs154  1  0.24980742  0.74942677  0.49996739  1
  Cs  Cs155  1  0.24984817  0.74938767  0.75001944  1
  Cs  Cs156  1  0.74980372  0.74945447  0.99977982  1
  Cs  Cs157  1  0.74980649  0.74944857  0.24979569  1
  Cs  Cs158  1  0.74980204  0.74945505  0.49978639  1
  Cs  Cs159  1  0.74980169  0.74947685  0.74978395  1
