# generated using pymatgen
data_CsCdF3
_symmetry_space_group_name_H-M   'P 1'
_cell_length_a   12.89446975
_cell_length_b   12.89446975
_cell_length_c   18.23553500
_cell_angle_alpha   90.00000000
_cell_angle_beta   90.00000000
_cell_angle_gamma   90.00000000
_symmetry_Int_Tables_number   1
_chemical_formula_structural   CsCdF3
_chemical_formula_sum   'Cs32 Cd32 F96'
_cell_volume   3031.97408270
_cell_formula_units_Z   32
loop_
 _symmetry_equiv_pos_site_id
 _symmetry_equiv_pos_as_xyz
  1  'x, y, z'
loop_
 _atom_site_type_symbol
 _atom_site_label
 _atom_site_symmetry_multiplicity
 _atom_site_fract_x
 _atom_site_fract_y
 _atom_site_fract_z
 _atom_site_occupancy
  Cd  Cd0  1  0.00039965  0.24955317  0.12557763  1
  Cd  Cd1  1  0.00042727  0.24958632  0.37537812  1
  Cd  Cd2  1  0.00062495  0.24957503  0.62549266  1
  Cd  Cd3  1  0.00049627  0.24961782  0.87518681  1
  Cd  Cd4  1  0.50052193  0.24973646  0.12542395  1
  Cd  Cd5  1  0.50036151  0.24960197  0.37507100  1
  Cd  Cd6  1  0.50046680  0.24967363  0.62527508  1
  Cd  Cd7  1  0.50053213  0.24973087  0.87500579  1
  Cd  Cd8  1  0.25049897  0.49961290  0.12544223  1
  Cd  Cd9  1  0.25045901  0.49965345  0.37513148  1
  Cd  Cd10  1  0.25050145  0.49970557  0.62541910  1
  Cd  Cd11  1  0.25042489  0.49966349  0.87511237  1
  Cd  Cd12  1  0.00047033  0.74960400  0.12543237  1
  Cd  Cd13  1  0.00035947  0.74956052  0.37513135  1
  Cd  Cd14  1  0.00056817  0.74977158  0.62555081  1
  Cd  Cd15  1  0.00047125  0.74965117  0.87525097  1
  Cd  Cd16  1  0.75043968  0.49963897  0.12543969  1
  Cd  Cd17  1  0.75045896  0.49962292  0.37525387  1
  Cd  Cd18  1  0.75060374  0.49961369  0.62553473  1
  Cd  Cd19  1  0.75051756  0.49962736  0.87523812  1
  Cd  Cd20  1  0.50040934  0.74980480  0.12524770  1
  Cd  Cd21  1  0.50038668  0.74958864  0.37498927  1
  Cd  Cd22  1  0.50065435  0.74959927  0.62539481  1
  Cd  Cd23  1  0.50051226  0.74969594  0.87507032  1
  Cd  Cd24  1  0.25042537  0.99977689  0.12534933  1
  Cd  Cd25  1  0.25030602  0.99949105  0.37506896  1
  Cd  Cd26  1  0.25065925  0.99963188  0.62533442  1
  Cd  Cd27  1  0.25057507  0.99969712  0.87501923  1
  Cd  Cd28  1  0.75044125  0.99972402  0.12533453  1
  Cd  Cd29  1  0.75036507  0.99954442  0.37498384  1
  Cd  Cd30  1  0.75052095  0.99962162  0.62532161  1
  Cd  Cd31  1  0.75049417  0.99976687  0.87501288  1
  Cs  Cs32  1  0.00070420  0.99952444  0.00027871  1
  Cs  Cs33  1  0.00029300  0.99983593  0.25032374  1
  Cs  Cs34  1  0.00048906  0.99945139  0.50033870  1
  Cs  Cs35  1  0.00038340  0.99971306  0.75023619  1
  Cs  Cs36  1  0.50059623  0.99994113  0.00016944  1
  Cs  Cs37  1  0.50009125  0.99973663  0.25010126  1
  Cs  Cs38  1  0.50054297  0.99945715  0.49992323  1
  Cs  Cs39  1  0.50031561  0.99981720  0.74999914  1
  Cs  Cs40  1  0.25052383  0.24978863  0.00020618  1
  Cs  Cs41  1  0.25032541  0.24976313  0.25031862  1
  Cs  Cs42  1  0.25049273  0.24964251  0.50021991  1
  Cs  Cs43  1  0.25026770  0.24974807  0.75016828  1
  Cs  Cs44  1  0.00052133  0.49945992  0.00043192  1
  Cs  Cs45  1  0.00043073  0.49959847  0.25030493  1
  Cs  Cs46  1  0.00056290  0.49967839  0.50040552  1
  Cs  Cs47  1  0.00030918  0.49979872  0.75026565  1
  Cs  Cs48  1  0.75068294  0.24961449  0.00026917  1
  Cs  Cs49  1  0.75037171  0.24970293  0.25045332  1
  Cs  Cs50  1  0.75050110  0.24951094  0.50030763  1
  Cs  Cs51  1  0.75035292  0.24972794  0.75017286  1
  Cs  Cs52  1  0.50051913  0.49970480  0.00017693  1
  Cs  Cs53  1  0.50040184  0.49989955  0.25016182  1
  Cs  Cs54  1  0.50052453  0.49944075  0.50024891  1
  Cs  Cs55  1  0.50035620  0.49981579  0.75033073  1
  Cs  Cs56  1  0.25057121  0.74968058  0.00018167  1
  Cs  Cs57  1  0.25020630  0.74980288  0.25009101  1
  Cs  Cs58  1  0.25045711  0.74952972  0.50019386  1
  Cs  Cs59  1  0.25033115  0.74981915  0.75023896  1
  Cs  Cs60  1  0.75054272  0.74980194  0.00020343  1
  Cs  Cs61  1  0.75020942  0.74980605  0.25003595  1
  Cs  Cs62  1  0.75052507  0.74948405  0.50030370  1
  Cs  Cs63  1  0.75048043  0.74971319  0.75038270  1
  F  F64  1  0.00016683  0.25003497  0.00036358  1
  F  F65  1  0.00040964  0.24936352  0.25045652  1
  F  F66  1  0.00024543  0.24998167  0.50042543  1
  F  F67  1  0.00066901  0.24916795  0.75025255  1
  F  F68  1  0.50051143  0.24953109  0.00022744  1
  F  F69  1  0.50042821  0.25004757  0.25027576  1
  F  F70  1  0.50001261  0.24960220  0.50013397  1
  F  F71  1  0.50043431  0.25009332  0.75011506  1
  F  F72  1  0.24951627  0.49961563  0.00026361  1
  F  F73  1  0.25094233  0.49969679  0.25024773  1
  F  F74  1  0.25001794  0.49969129  0.50027440  1
  F  F75  1  0.25108079  0.49986865  0.75025667  1
  F  F76  1  0.00077889  0.74935659  0.00032066  1
  F  F77  1  0.00039341  0.74963261  0.25021339  1
  F  F78  1  0.00007933  0.74976978  0.50032254  1
  F  F79  1  0.00050877  0.75002902  0.75038412  1
  F  F80  1  0.75026164  0.49952229  0.00031655  1
  F  F81  1  0.75044942  0.49967262  0.25032694  1
  F  F82  1  0.75038905  0.49997447  0.50040734  1
  F  F83  1  0.75053089  0.49988890  0.75034675  1
  F  F84  1  0.50003512  0.75001763  0.00013757  1
  F  F85  1  0.50028992  0.74952840  0.25007211  1
  F  F86  1  0.50039352  0.75005996  0.50020608  1
  F  F87  1  0.50077808  0.74934221  0.75024001  1
  F  F88  1  0.25122301  0.99965885  0.00019475  1
  F  F89  1  0.24950935  0.99967451  0.25021511  1
  F  F90  1  0.25110516  0.99945011  0.50016769  1
  F  F91  1  0.24976734  0.00002432  0.75017889  1
  F  F92  1  0.75044257  0.00024720  0.00017174  1
  F  F93  1  0.75019640  0.99973357  0.25015476  1
  F  F94  1  0.75058446  0.99934861  0.50013989  1
  F  F95  1  0.75029007  0.99980295  0.75019024  1
  F  F96  1  0.12536059  0.12467553  0.12504760  1
  F  F97  1  0.12530547  0.12459006  0.37580395  1
  F  F98  1  0.12572236  0.12470553  0.62469911  1
  F  F99  1  0.12565860  0.12478990  0.87561141  1
  F  F100  1  0.62533280  0.12464578  0.12548582  1
  F  F101  1  0.62544979  0.12474146  0.37512145  1
  F  F102  1  0.62551896  0.12463099  0.62499358  1
  F  F103  1  0.62559686  0.12491351  0.87486172  1
  F  F104  1  0.37548448  0.37474745  0.12502126  1
  F  F105  1  0.37532514  0.37458882  0.37542850  1
  F  F106  1  0.37549859  0.37475878  0.62501622  1
  F  F107  1  0.37540701  0.37465656  0.87561049  1
  F  F108  1  0.12537339  0.62451765  0.12594230  1
  F  F109  1  0.12575238  0.62496370  0.37512963  1
  F  F110  1  0.12539996  0.62466214  0.62555685  1
  F  F111  1  0.12548674  0.62475951  0.87453769  1
  F  F112  1  0.87541106  0.37457714  0.12554298  1
  F  F113  1  0.87551078  0.37465802  0.37534261  1
  F  F114  1  0.87561659  0.37472807  0.62551286  1
  F  F115  1  0.87538547  0.37451775  0.87510396  1
  F  F116  1  0.62525943  0.62458156  0.12511497  1
  F  F117  1  0.62573472  0.62497585  0.37493281  1
  F  F118  1  0.62541093  0.62443034  0.62559339  1
  F  F119  1  0.62539610  0.62457583  0.87521583  1
  F  F120  1  0.37559588  0.87500519  0.12579369  1
  F  F121  1  0.37501364  0.87420895  0.37449880  1
  F  F122  1  0.37581974  0.87484202  0.62582537  1
  F  F123  1  0.37540483  0.87465165  0.87429979  1
  F  F124  1  0.87540696  0.87465842  0.12504417  1
  F  F125  1  0.87522205  0.87446426  0.37438017  1
  F  F126  1  0.87580327  0.87494136  0.62598935  1
  F  F127  1  0.87537597  0.87463931  0.87522528  1
  F  F128  1  0.87526734  0.12477353  0.12576431  1
  F  F129  1  0.87538277  0.12453672  0.37529403  1
  F  F130  1  0.87551119  0.12463928  0.62522724  1
  F  F131  1  0.87562816  0.12462009  0.87480684  1
  F  F132  1  0.37528946  0.12495248  0.12580070  1
  F  F133  1  0.37545525  0.12434885  0.37449046  1
  F  F134  1  0.37554916  0.12468829  0.62556092  1
  F  F135  1  0.37562898  0.12466423  0.87467788  1
  F  F136  1  0.12535129  0.37462852  0.12591025  1
  F  F137  1  0.12541459  0.37471932  0.37494608  1
  F  F138  1  0.12551851  0.37469056  0.62576710  1
  F  F139  1  0.12534960  0.37470965  0.87441936  1
  F  F140  1  0.87537688  0.62462797  0.12515452  1
  F  F141  1  0.87557606  0.62449980  0.37525387  1
  F  F142  1  0.87536492  0.62494891  0.62547708  1
  F  F143  1  0.87549688  0.62461995  0.87538706  1
  F  F144  1  0.62540496  0.37474840  0.12559632  1
  F  F145  1  0.62533377  0.37479669  0.37536824  1
  F  F146  1  0.62566853  0.37442663  0.62520349  1
  F  F147  1  0.62549189  0.37471479  0.87494732  1
  F  F148  1  0.37543446  0.62474155  0.12478436  1
  F  F149  1  0.37570307  0.62438112  0.37522908  1
  F  F150  1  0.37538760  0.62488770  0.62510245  1
  F  F151  1  0.37525896  0.62485218  0.87547442  1
  F  F152  1  0.12544828  0.87469429  0.12495973  1
  F  F153  1  0.12497257  0.87484916  0.37526866  1
  F  F154  1  0.12572909  0.87460223  0.62504961  1
  F  F155  1  0.12524968  0.87494195  0.87555320  1
  F  F156  1  0.62550553  0.87468964  0.12492687  1
  F  F157  1  0.62498270  0.87494356  0.37482002  1
  F  F158  1  0.62577665  0.87447989  0.62523963  1
  F  F159  1  0.62539342  0.87482476  0.87538835  1
