# generated using pymatgen
data_CsCdI3
_symmetry_space_group_name_H-M   'P 1'
_cell_length_a   17.10830149
_cell_length_b   17.10830149
_cell_length_c   24.19479300
_cell_angle_alpha   90.00000000
_cell_angle_beta   90.00000000
_cell_angle_gamma   90.00000000
_symmetry_Int_Tables_number   1
_chemical_formula_structural   CsCdI3
_chemical_formula_sum   'Cs32 Cd32 I96'
_cell_volume   7081.67025752
_cell_formula_units_Z   32
loop_
 _symmetry_equiv_pos_site_id
 _symmetry_equiv_pos_as_xyz
  1  'x, y, z'
loop_
 _atom_site_type_symbol
 _atom_site_label
 _atom_site_symmetry_multiplicity
 _atom_site_fract_x
 _atom_site_fract_y
 _atom_site_fract_z
 _atom_site_occupancy
  Cd  Cd0  1  0.00019877  0.98332013  0.00740579  1
  Cd  Cd1  1  0.96574160  0.99642411  0.23453652  1
  Cd  Cd2  1  0.99006371  0.02812318  0.49763428  1
  Cd  Cd3  1  0.03489548  0.01951007  0.76731900  1
  Cd  Cd4  1  0.47223163  0.00056397  0.99072960  1
  Cd  Cd5  1  0.52369590  0.97184271  0.26030298  1
  Cd  Cd6  1  0.52445580  0.99456307  0.51867534  1
  Cd  Cd7  1  0.51025702  0.01182672  0.75298126  1
  Cd  Cd8  1  0.22843826  0.23313452  0.00357258  1
  Cd  Cd9  1  0.24291276  0.27950021  0.26910278  1
  Cd  Cd10  1  0.21769974  0.24739037  0.48661150  1
  Cd  Cd11  1  0.29988708  0.24497763  0.74209845  1
  Cd  Cd12  1  0.99136636  0.50877022  0.99321248  1
  Cd  Cd13  1  0.98721285  0.50699812  0.25966297  1
  Cd  Cd14  1  0.00967975  0.49149470  0.49062392  1
  Cd  Cd15  1  0.02382947  0.50622566  0.76637145  1
  Cd  Cd16  1  0.73242880  0.27903539  0.98437478  1
  Cd  Cd17  1  0.73063076  0.25974194  0.24965604  1
  Cd  Cd18  1  0.78065872  0.25634718  0.51885890  1
  Cd  Cd19  1  0.71895365  0.25639913  0.74189238  1
  Cd  Cd20  1  0.46386511  0.52529402  0.00537256  1
  Cd  Cd21  1  0.48978942  0.51881136  0.24346679  1
  Cd  Cd22  1  0.48344559  0.53013206  0.48561280  1
  Cd  Cd23  1  0.47515606  0.49258181  0.75881841  1
  Cd  Cd24  1  0.24458127  0.75187635  0.98587072  1
  Cd  Cd25  1  0.24881532  0.72350142  0.21980748  1
  Cd  Cd26  1  0.23267537  0.75602381  0.48539927  1
  Cd  Cd27  1  0.28032289  0.75860475  0.76275086  1
  Cd  Cd28  1  0.79763183  0.74806806  0.03053158  1
  Cd  Cd29  1  0.75597173  0.73485259  0.26004496  1
  Cd  Cd30  1  0.80617958  0.72981664  0.47879135  1
  Cd  Cd31  1  0.73521145  0.74972057  0.76082255  1
  Cs  Cs32  1  0.96504388  0.22065897  0.13594369  1
  Cs  Cs33  1  0.95649108  0.23307354  0.35794832  1
  Cs  Cs34  1  0.97830848  0.23063508  0.64703587  1
  Cs  Cs35  1  0.97982147  0.22316658  0.89283328  1
  Cs  Cs36  1  0.50189664  0.25524268  0.10921117  1
  Cs  Cs37  1  0.48737188  0.24489544  0.36231430  1
  Cs  Cs38  1  0.51459033  0.27359705  0.59334510  1
  Cs  Cs39  1  0.52808024  0.28030322  0.88948228  1
  Cs  Cs40  1  0.22277494  0.47854821  0.14163676  1
  Cs  Cs41  1  0.25805458  0.53424927  0.39375145  1
  Cs  Cs42  1  0.23662114  0.50122587  0.64923455  1
  Cs  Cs43  1  0.20282592  0.47254426  0.90022953  1
  Cs  Cs44  1  0.04214835  0.73838495  0.11818388  1
  Cs  Cs45  1  0.05266793  0.77923737  0.35748539  1
  Cs  Cs46  1  0.00500284  0.75697956  0.61249061  1
  Cs  Cs47  1  0.00037043  0.75070705  0.84077827  1
  Cs  Cs48  1  0.75367928  0.48223171  0.12642669  1
  Cs  Cs49  1  0.72408244  0.48317110  0.35596446  1
  Cs  Cs50  1  0.77704016  0.50901572  0.61078788  1
  Cs  Cs51  1  0.75694682  0.50427609  0.84288943  1
  Cs  Cs52  1  0.50345695  0.76695351  0.12916428  1
  Cs  Cs53  1  0.48948008  0.76325656  0.41380903  1
  Cs  Cs54  1  0.48467842  0.74857866  0.63209920  1
  Cs  Cs55  1  0.52864574  0.75173541  0.89184524  1
  Cs  Cs56  1  0.26933634  0.02568282  0.12599427  1
  Cs  Cs57  1  0.26897269  0.01188621  0.37046552  1
  Cs  Cs58  1  0.26621590  0.02444832  0.62438478  1
  Cs  Cs59  1  0.26078912  0.02159833  0.87463596  1
  Cs  Cs60  1  0.73330342  0.02313072  0.11764689  1
  Cs  Cs61  1  0.72701162  0.98032358  0.37452138  1
  Cs  Cs62  1  0.73812783  0.96968375  0.63449545  1
  Cs  Cs63  1  0.77292009  0.96137985  0.87871434  1
  I  I64  1  0.10618879  0.11881293  0.03379378  1
  I  I65  1  0.09965613  0.08595086  0.23566255  1
  I  I66  1  0.11112230  0.14340213  0.54011827  1
  I  I67  1  0.16039599  0.13878165  0.74606745  1
  I  I68  1  0.64179337  0.14428107  0.99457417  1
  I  I69  1  0.58728578  0.11930327  0.23790343  1
  I  I70  1  0.59548280  0.13189437  0.48341621  1
  I  I71  1  0.66152847  0.09991303  0.77212935  1
  I  I72  1  0.37973826  0.38955066  0.98336646  1
  I  I73  1  0.34464475  0.41132825  0.28155787  1
  I  I74  1  0.40588746  0.39197556  0.48306676  1
  I  I75  1  0.33754101  0.39362579  0.79015257  1
  I  I76  1  0.09358879  0.64307343  0.97552984  1
  I  I77  1  0.14309953  0.60704674  0.26572790  1
  I  I78  1  0.10065635  0.64794414  0.47810371  1
  I  I79  1  0.15468208  0.60728313  0.78222474  1
  I  I80  1  0.87690607  0.33902697  0.01793834  1
  I  I81  1  0.86444214  0.37953839  0.25012177  1
  I  I82  1  0.93080960  0.33063585  0.50585756  1
  I  I83  1  0.83999684  0.36571822  0.72507103  1
  I  I84  1  0.58520077  0.62982323  0.01779886  1
  I  I85  1  0.63516964  0.61840242  0.22353296  1
  I  I86  1  0.60383168  0.61905593  0.52352876  1
  I  I87  1  0.65373811  0.62320107  0.71818102  1
  I  I88  1  0.39014076  0.85315665  0.00060376  1
  I  I89  1  0.38423633  0.90449952  0.22811729  1
  I  I90  1  0.38565683  0.90832361  0.51908984  1
  I  I91  1  0.36472770  0.91766912  0.75007817  1
  I  I92  1  0.92456289  0.82675464  0.97866983  1
  I  I93  1  0.88692207  0.86904548  0.28331920  1
  I  I94  1  0.90392185  0.85674939  0.45943207  1
  I  I95  1  0.85896873  0.85093290  0.73773627  1
  I  I96  1  0.86892420  0.08351613  0.99258368  1
  I  I97  1  0.84096507  0.10703490  0.25326758  1
  I  I98  1  0.83919116  0.11281902  0.47162225  1
  I  I99  1  0.89781707  0.10261741  0.76461673  1
  I  I100  1  0.38011082  0.13955169  0.97905055  1
  I  I101  1  0.34490927  0.15560793  0.25030704  1
  I  I102  1  0.35669794  0.16220231  0.48477591  1
  I  I103  1  0.41135471  0.14722727  0.79505826  1
  I  I104  1  0.09793004  0.39064190  0.02753179  1
  I  I105  1  0.10205939  0.33960399  0.22811698  1
  I  I106  1  0.17011179  0.40135654  0.51077439  1
  I  I107  1  0.09496906  0.36597758  0.74050153  1
  I  I108  1  0.83856534  0.58563998  0.99670377  1
  I  I109  1  0.88534154  0.63092172  0.30001262  1
  I  I110  1  0.85646989  0.57008276  0.46587966  1
  I  I111  1  0.90227551  0.60639216  0.73920443  1
  I  I112  1  0.62486567  0.39907992  0.01027861  1
  I  I113  1  0.58655058  0.37577348  0.24439582  1
  I  I114  1  0.67190472  0.37498006  0.50205788  1
  I  I115  1  0.57547463  0.33801742  0.73735234  1
  I  I116  1  0.34688621  0.62824575  0.94727386  1
  I  I117  1  0.39490162  0.66820991  0.25897110  1
  I  I118  1  0.35032399  0.64403162  0.51999747  1
  I  I119  1  0.41375452  0.66322831  0.77497409  1
  I  I120  1  0.15442675  0.88622961  0.02405141  1
  I  I121  1  0.15883915  0.85819273  0.22481936  1
  I  I122  1  0.15106925  0.88406529  0.52522075  1
  I  I123  1  0.10837971  0.89219932  0.72344052  1
  I  I124  1  0.67190208  0.84946883  0.01979529  1
  I  I125  1  0.65536684  0.87206497  0.22719731  1
  I  I126  1  0.63669611  0.87499473  0.51338798  1
  I  I127  1  0.60163626  0.86283743  0.74508651  1
  I  I128  1  0.94856599  0.94347175  0.12215076  1
  I  I129  1  0.04009293  0.01710722  0.38911446  1
  I  I130  1  0.95868492  0.99274527  0.60698428  1
  I  I131  1  0.04134773  0.98289348  0.88480400  1
  I  I132  1  0.51068363  0.01138948  0.10143221  1
  I  I133  1  0.49933243  0.97702522  0.37537667  1
  I  I134  1  0.50577512  0.05479805  0.63672742  1
  I  I135  1  0.54034639  0.97836890  0.88690921  1
  I  I136  1  0.27189059  0.26102364  0.11103006  1
  I  I137  1  0.17529832  0.22628128  0.37251945  1
  I  I138  1  0.29536861  0.26873060  0.62991676  1
  I  I139  1  0.20248121  0.24974141  0.89220427  1
  I  I140  1  0.98810806  0.52342667  0.14246172  1
  I  I141  1  0.03668868  0.45272860  0.37095041  1
  I  I142  1  0.00858799  0.52065273  0.60591194  1
  I  I143  1  0.97273970  0.45381618  0.87891492  1
  I  I144  1  0.73126308  0.24952620  0.13594660  1
  I  I145  1  0.71774672  0.25065791  0.36256727  1
  I  I146  1  0.74189993  0.19210618  0.62505122  1
  I  I147  1  0.76147570  0.27909455  0.86631427  1
  I  I148  1  0.44541223  0.49196239  0.12963687  1
  I  I149  1  0.51205901  0.54761224  0.36614330  1
  I  I150  1  0.46419956  0.50368913  0.64472934  1
  I  I151  1  0.53803840  0.50888463  0.86471194  1
  I  I152  1  0.27317565  0.68990582  0.10385006  1
  I  I153  1  0.27400745  0.78451111  0.37467176  1
  I  I154  1  0.24386359  0.74142112  0.65137233  1
  I  I155  1  0.21779479  0.80404016  0.86701018  1
  I  I156  1  0.82174003  0.71426938  0.14535200  1
  I  I157  1  0.70686078  0.74045772  0.37818592  1
  I  I158  1  0.78094216  0.73304523  0.59319609  1
  I  I159  1  0.75071508  0.72720173  0.87572345  1
