# generated using pymatgen
data_CsCdBr3
_symmetry_space_group_name_H-M   'P 1'
_cell_length_a   15.89918001
_cell_length_b   15.89918001
_cell_length_c   22.48483700
_cell_angle_alpha   90.00000000
_cell_angle_beta   90.00000000
_cell_angle_gamma   90.00000000
_symmetry_Int_Tables_number   1
_chemical_formula_structural   CsCdBr3
_chemical_formula_sum   'Cs32 Cd32 Br96'
_cell_volume   5683.80534925
_cell_formula_units_Z   32
loop_
 _symmetry_equiv_pos_site_id
 _symmetry_equiv_pos_as_xyz
  1  'x, y, z'
loop_
 _atom_site_type_symbol
 _atom_site_label
 _atom_site_symmetry_multiplicity
 _atom_site_fract_x
 _atom_site_fract_y
 _atom_site_fract_z
 _atom_site_occupancy
  Br  Br0  1  0.99865629  0.23302668  -0.00002987  1
  Br  Br1  1  -0.00079522  0.26822590  0.24950262  1
  Br  Br2  1  0.00156482  0.23160902  0.50002289  1
  Br  Br3  1  0.00046918  0.26581780  0.74928356  1
  Br  Br4  1  0.50422748  0.23456581  0.99929529  1
  Br  Br5  1  0.49503520  0.26686567  0.24982901  1
  Br  Br6  1  0.50524411  0.23398959  0.49958632  1
  Br  Br7  1  0.49652935  0.26486501  0.75014609  1
  Br  Br8  1  0.25095214  0.51867057  0.99984760  1
  Br  Br9  1  0.24692157  0.48204805  0.24937693  1
  Br  Br10  1  0.25330892  0.51768974  0.49984814  1
  Br  Br11  1  0.24976445  0.48129489  0.74964888  1
  Br  Br12  1  0.00461048  0.73464637  0.99937013  1
  Br  Br13  1  0.99548621  0.76701599  0.24974309  1
  Br  Br14  1  0.00530566  0.73392695  0.49954355  1
  Br  Br15  1  0.99764229  0.76500995  0.75003569  1
  Br  Br16  1  0.75041308  0.51575905  0.99949183  1
  Br  Br17  1  0.74644365  0.48531467  0.24954642  1
  Br  Br18  1  0.75375850  0.51490656  0.49959127  1
  Br  Br19  1  0.75134850  0.48406239  0.74961091  1
  Br  Br20  1  0.49960513  0.73402197  0.00003481  1
  Br  Br21  1  0.49903394  0.76823508  0.24952506  1
  Br  Br22  1  0.50198923  0.73189440  0.50004952  1
  Br  Br23  1  0.50148525  0.76655052  0.74939890  1
  Br  Br24  1  0.25069657  0.01570958  0.99942946  1
  Br  Br25  1  0.24669482  0.98559287  0.24965896  1
  Br  Br26  1  0.25357136  0.01469247  0.49961329  1
  Br  Br27  1  0.25044845  0.98414596  0.74964321  1
  Br  Br28  1  0.75109021  0.01878379  0.99991394  1
  Br  Br29  1  0.74684276  0.98211774  0.24951602  1
  Br  Br30  1  0.75324533  0.01789321  0.49980215  1
  Br  Br31  1  0.74956726  0.98137558  0.74971217  1
  Br  Br32  1  0.11166727  0.11710259  0.13257746  1
  Br  Br33  1  0.10928539  0.11328119  0.36680665  1
  Br  Br34  1  0.11459712  0.11465260  0.63340981  1
  Br  Br35  1  0.11382742  0.10960559  0.86655577  1
  Br  Br36  1  0.61125794  0.11803207  0.13394361  1
  Br  Br37  1  0.60947643  0.11340259  0.36582843  1
  Br  Br38  1  0.61453523  0.11619309  0.63420645  1
  Br  Br39  1  0.61438307  0.10933670  0.86579035  1
  Br  Br40  1  0.38700218  0.38477048  0.11503936  1
  Br  Br41  1  0.39199120  0.38584726  0.38399687  1
  Br  Br42  1  0.38871667  0.38194551  0.61591136  1
  Br  Br43  1  0.38737161  0.38929280  0.88381866  1
  Br  Br44  1  0.11131187  0.61794228  0.13393031  1
  Br  Br45  1  0.10949851  0.61322677  0.36562148  1
  Br  Br46  1  0.11474995  0.61528441  0.63398340  1
  Br  Br47  1  0.11446053  0.60924571  0.86576670  1
  Br  Br48  1  0.88657379  0.38518263  0.11649704  1
  Br  Br49  1  0.89264899  0.38574407  0.38287844  1
  Br  Br50  1  0.88837520  0.38196337  0.61601939  1
  Br  Br51  1  0.88790169  0.38902455  0.88244814  1
  Br  Br52  1  0.61167721  0.61723928  0.13270942  1
  Br  Br53  1  0.60928468  0.61344104  0.36662958  1
  Br  Br54  1  0.61548234  0.61562158  0.63327350  1
  Br  Br55  1  0.61418088  0.60948945  0.86619432  1
  Br  Br56  1  0.38696116  0.88544287  0.11699755  1
  Br  Br57  1  0.39269720  0.88571404  0.38300966  1
  Br  Br58  1  0.38889037  0.88272520  0.61653032  1
  Br  Br59  1  0.38793928  0.88828450  0.88225521  1
  Br  Br60  1  0.88711438  0.88474179  0.11513747  1
  Br  Br61  1  0.89203866  0.88568159  0.38386049  1
  Br  Br62  1  0.88874964  0.88183858  0.61596171  1
  Br  Br63  1  0.88808791  0.88994411  0.88385634  1
  Br  Br64  1  0.86189130  0.13496752  0.13489663  1
  Br  Br65  1  0.85958453  0.13677877  0.36497248  1
  Br  Br66  1  0.86468555  0.13223627  0.63452467  1
  Br  Br67  1  0.86386442  0.14032189  0.86581684  1
  Br  Br68  1  0.36209389  0.13556877  0.13211241  1
  Br  Br69  1  0.35950101  0.13680616  0.36684089  1
  Br  Br70  1  0.36426087  0.13301206  0.63254930  1
  Br  Br71  1  0.36425656  0.13912504  0.86795609  1
  Br  Br72  1  0.13734456  0.36737993  0.11457156  1
  Br  Br73  1  0.14222925  0.36410185  0.38427206  1
  Br  Br74  1  0.13871999  0.36561669  0.61497494  1
  Br  Br75  1  0.13754208  0.35983618  0.88353708  1
  Br  Br76  1  0.86213977  0.63560501  0.13230403  1
  Br  Br77  1  0.85948633  0.63661872  0.36650984  1
  Br  Br78  1  0.86482076  0.63311426  0.63246658  1
  Br  Br79  1  0.86390441  0.64014144  0.86831349  1
  Br  Br80  1  0.63738799  0.36765540  0.11716295  1
  Br  Br81  1  0.64261833  0.36419592  0.38269135  1
  Br  Br82  1  0.63812118  0.36648059  0.61753923  1
  Br  Br83  1  0.63757685  0.36107789  0.88134811  1
  Br  Br84  1  0.36204237  0.63481524  0.13446380  1
  Br  Br85  1  0.35935760  0.63682609  0.36518198  1
  Br  Br86  1  0.36503302  0.63242615  0.63450712  1
  Br  Br87  1  0.36487691  0.63955275  0.86588494  1
  Br  Br88  1  0.13783255  0.86741968  0.11734971  1
  Br  Br89  1  0.14256356  0.86405576  0.38254607  1
  Br  Br90  1  0.13871860  0.86554141  0.61719656  1
  Br  Br91  1  0.13797508  0.86083861  0.88135217  1
  Br  Br92  1  0.63755590  0.86763133  0.11476624  1
  Br  Br93  1  0.64237658  0.86420664  0.38440987  1
  Br  Br94  1  0.63861294  0.86645818  0.61482532  1
  Br  Br95  1  0.63818134  0.85983476  0.88372176  1
  Cd  Cd96  1  -0.00014290  0.25241362  0.12460481  1
  Cd  Cd97  1  0.00248631  0.24996866  0.37475079  1
  Cd  Cd98  1  0.00258555  0.24853002  0.62462435  1
  Cd  Cd99  1  0.00235635  0.24890613  0.87470918  1
  Cd  Cd100  1  0.49997717  0.25297219  0.12435655  1
  Cd  Cd101  1  0.50255228  0.25031780  0.37449981  1
  Cd  Cd102  1  0.50228687  0.24881255  0.62471635  1
  Cd  Cd103  1  0.50250090  0.24914303  0.87459887  1
  Cd  Cd104  1  0.24889951  0.50240748  0.12473581  1
  Cd  Cd105  1  0.25241735  0.49999810  0.37455564  1
  Cd  Cd106  1  0.25249515  0.49881001  0.62467132  1
  Cd  Cd107  1  0.25240365  0.49990739  0.87472159  1
  Cd  Cd108  1  0.00001210  0.75289515  0.12434162  1
  Cd  Cd109  1  0.00263678  0.75016543  0.37430053  1
  Cd  Cd110  1  0.00251324  0.74868375  0.62464135  1
  Cd  Cd111  1  0.00252244  0.74919483  0.87457298  1
  Cd  Cd112  1  0.74957379  0.50262023  0.12444131  1
  Cd  Cd113  1  0.75270472  0.49992669  0.37429577  1
  Cd  Cd114  1  0.75271601  0.49901037  0.62450317  1
  Cd  Cd115  1  0.75260929  0.50001435  0.87434853  1
  Cd  Cd116  1  0.49993095  0.75244917  0.12472827  1
  Cd  Cd117  1  0.50254061  0.75003971  0.37477039  1
  Cd  Cd118  1  0.50249079  0.74892447  0.62469037  1
  Cd  Cd119  1  0.50257189  0.74908803  0.87463986  1
  Cd  Cd120  1  0.24956241  0.00261150  0.12450001  1
  Cd  Cd121  1  0.25256566  -0.00008895  0.37441847  1
  Cd  Cd122  1  0.25249507  0.99890158  0.62453208  1
  Cd  Cd123  1  0.25271939  0.99988899  0.87430896  1
  Cd  Cd124  1  0.74900785  0.00255833  0.12478409  1
  Cd  Cd125  1  0.75245819  0.00008426  0.37464333  1
  Cd  Cd126  1  0.75257907  0.99893537  0.62473838  1
  Cd  Cd127  1  0.75243085  -0.00006464  0.87479217  1
  Cs  Cs128  1  0.01013038  0.99860791  0.00012075  1
  Cs  Cs129  1  0.98924243  0.00245753  0.24892565  1
  Cs  Cs130  1  0.01154123  0.99709954  0.50076561  1
  Cs  Cs131  1  0.99228763  0.00005240  0.74951935  1
  Cs  Cs132  1  0.50864540  0.99908131  0.99991176  1
  Cs  Cs133  1  0.48908939  0.00317475  0.24893958  1
  Cs  Cs134  1  0.51115400  0.99851202  0.50060861  1
  Cs  Cs135  1  0.49225898  0.00078759  0.74923709  1
  Cs  Cs136  1  0.26001758  0.25149311  0.00000170  1
  Cs  Cs137  1  0.23928456  0.24755906  0.24896995  1
  Cs  Cs138  1  0.26202855  0.25026104  0.50018004  1
  Cs  Cs139  1  0.24192308  0.24651117  0.74933902  1
  Cs  Cs140  1  0.00866479  0.49913548  -0.00007298  1
  Cs  Cs141  1  0.98885393  0.50285242  0.24883510  1
  Cs  Cs142  1  0.01119063  0.49822679  0.50065808  1
  Cs  Cs143  1  0.99252345  0.50028691  0.74917097  1
  Cs  Cs144  1  0.75888713  0.25355815  0.00007546  1
  Cs  Cs145  1  0.73827523  0.24955221  0.24939721  1
  Cs  Cs146  1  0.76086572  0.25210412  0.50078253  1
  Cs  Cs147  1  0.74205336  0.24870256  0.74911455  1
  Cs  Cs148  1  0.50922831  0.49925804  -0.00011158  1
  Cs  Cs149  1  0.48930417  0.50230565  0.24881845  1
  Cs  Cs150  1  0.51146536  0.49742716  0.50088503  1
  Cs  Cs151  1  0.49264975  0.49998988  0.74916880  1
  Cs  Cs152  1  0.25934636  0.75340229  0.00013509  1
  Cs  Cs153  1  0.23880312  0.74962697  0.24914057  1
  Cs  Cs154  1  0.26134439  0.75182327  0.50065505  1
  Cs  Cs155  1  0.24231966  0.74840913  0.74933997  1
  Cs  Cs156  1  0.76027330  0.75200538  0.00027888  1
  Cs  Cs157  1  0.73925497  0.74800645  0.24909410  1
  Cs  Cs158  1  0.76207584  0.75040058  0.50030243  1
  Cs  Cs159  1  0.74256219  0.74693347  0.74916531  1
