# generated using pymatgen
data_CsGaBr3
_symmetry_space_group_name_H-M   'P 1'
_cell_length_a   15.58794837
_cell_length_b   15.58794837
_cell_length_c   22.04468900
_cell_angle_alpha   90.00000000
_cell_angle_beta   90.00000000
_cell_angle_gamma   90.00000000
_symmetry_Int_Tables_number   1
_chemical_formula_structural   CsGaBr3
_chemical_formula_sum   'Cs32 Ga32 Br96'
_cell_volume   5356.50967718
_cell_formula_units_Z   32
loop_
 _symmetry_equiv_pos_site_id
 _symmetry_equiv_pos_as_xyz
  1  'x, y, z'
loop_
 _atom_site_type_symbol
 _atom_site_label
 _atom_site_symmetry_multiplicity
 _atom_site_fract_x
 _atom_site_fract_y
 _atom_site_fract_z
 _atom_site_occupancy
  Cs  Cs0  1  0.00564492  0.00568123  0.00296110  1
  Cs  Cs1  1  0.00383553  0.00843937  0.24878617  1
  Cs  Cs2  1  0.00593223  0.00726182  0.50192366  1
  Cs  Cs3  1  0.00550505  0.00398844  0.75015530  1
  Cs  Cs4  1  0.49746766  0.99736481  -0.00109362  1
  Cs  Cs5  1  0.50432197  0.99566941  0.24869374  1
  Cs  Cs6  1  0.50586088  -0.00239701  0.50031749  1
  Cs  Cs7  1  0.49909444  0.99721832  0.75294515  1
  Cs  Cs8  1  0.24837851  0.24848556  -0.00217055  1
  Cs  Cs9  1  0.24718537  0.25216527  0.24959667  1
  Cs  Cs10  1  0.24675724  0.25270231  0.50183517  1
  Cs  Cs11  1  0.24860921  0.24942547  0.75047020  1
  Cs  Cs12  1  0.00222885  0.50316826  0.00010285  1
  Cs  Cs13  1  -0.00092687  0.50754752  0.25260553  1
  Cs  Cs14  1  -0.00374988  0.50368413  0.50173287  1
  Cs  Cs15  1  -0.00334409  0.49873740  0.74640030  1
  Cs  Cs16  1  0.74823790  0.24071398  -0.00417851  1
  Cs  Cs17  1  0.74832590  0.24764233  0.25293049  1
  Cs  Cs18  1  0.75278672  0.24637631  0.50082525  1
  Cs  Cs19  1  0.75125473  0.24481845  0.74968411  1
  Cs  Cs20  1  0.49149595  0.49642909  -0.00551104  1
  Cs  Cs21  1  0.49409338  0.49581735  0.25375151  1
  Cs  Cs22  1  0.49223870  0.50054119  0.50130501  1
  Cs  Cs23  1  0.49496826  0.50018988  0.74936113  1
  Cs  Cs24  1  0.25168872  0.75662540  0.00063467  1
  Cs  Cs25  1  0.25480231  0.74966806  0.24884673  1
  Cs  Cs26  1  0.25096011  0.75255878  0.50317845  1
  Cs  Cs27  1  0.24907895  0.75618768  0.75105669  1
  Cs  Cs28  1  0.75085363  0.75286216  0.00131268  1
  Cs  Cs29  1  0.75390042  0.75327588  0.25005728  1
  Cs  Cs30  1  0.74907939  0.75256791  0.50186649  1
  Cs  Cs31  1  0.74558844  0.74940468  0.74845668  1
  Ga  Ga32  1  -0.00012902  0.25300459  0.12481886  1
  Ga  Ga33  1  0.00988195  0.24372259  0.37584134  1
  Ga  Ga34  1  0.99834253  0.24881259  0.62848514  1
  Ga  Ga35  1  -0.00221061  0.25372082  0.87511103  1
  Ga  Ga36  1  0.49405266  0.23916159  0.12369459  1
  Ga  Ga37  1  0.49012829  0.23979338  0.37616462  1
  Ga  Ga38  1  0.51008924  0.23457666  0.62499566  1
  Ga  Ga39  1  0.49940330  0.24862856  0.87193788  1
  Ga  Ga40  1  0.25751049  0.49134114  0.12397344  1
  Ga  Ga41  1  0.24914639  0.50067922  0.37403462  1
  Ga  Ga42  1  0.25779321  0.49205125  0.62505783  1
  Ga  Ga43  1  0.24977405  0.49969597  0.87377939  1
  Ga  Ga44  1  0.00123190  0.75231959  0.11126168  1
  Ga  Ga45  1  -0.01130857  0.74198718  0.36217500  1
  Ga  Ga46  1  -0.00029399  0.75037097  0.61096214  1
  Ga  Ga47  1  -0.01464792  0.73761179  0.85968612  1
  Ga  Ga48  1  0.73410883  0.48448086  0.10976155  1
  Ga  Ga49  1  0.73319545  0.48133892  0.37737853  1
  Ga  Ga50  1  0.74203726  0.49212284  0.62275532  1
  Ga  Ga51  1  0.74652164  0.48749887  0.86621648  1
  Ga  Ga52  1  0.50093325  0.74969537  0.12414952  1
  Ga  Ga53  1  0.50841071  0.73985593  0.37200511  1
  Ga  Ga54  1  0.50658630  0.75597365  0.62095176  1
  Ga  Ga55  1  0.50902941  0.73941369  0.87404899  1
  Ga  Ga56  1  0.24939288  -0.00110397  0.12759809  1
  Ga  Ga57  1  0.26507397  -0.01708292  0.37577584  1
  Ga  Ga58  1  0.25307542  0.00108703  0.62624220  1
  Ga  Ga59  1  0.25026330  0.00008811  0.87624241  1
  Ga  Ga60  1  0.74641899  0.00484343  0.12521183  1
  Ga  Ga61  1  0.74869896  -0.00121595  0.37428221  1
  Ga  Ga62  1  0.75838557  -0.00219773  0.62468953  1
  Ga  Ga63  1  0.75351412  0.00254959  0.87537702  1
  Br  Br64  1  0.00039511  0.25254032  -0.00533970  1
  Br  Br65  1  0.99259672  0.26193528  0.25849326  1
  Br  Br66  1  0.99786673  0.25717739  0.49455183  1
  Br  Br67  1  0.00354905  0.25079752  0.75363732  1
  Br  Br68  1  0.49697456  0.24679402  -0.00525914  1
  Br  Br69  1  0.49859244  0.24898928  0.25360474  1
  Br  Br70  1  0.49648771  0.24732896  0.50843756  1
  Br  Br71  1  0.49711302  0.24739526  0.74184935  1
  Br  Br72  1  0.24402460  0.50631470  0.00656213  1
  Br  Br73  1  0.24382156  0.50460930  0.24266627  1
  Br  Br74  1  0.24023974  0.50813835  0.50959702  1
  Br  Br75  1  0.24049214  0.50912501  0.74118685  1
  Br  Br76  1  0.00230319  0.75479179  0.00100187  1
  Br  Br77  1  0.00887355  0.75915615  0.25384827  1
  Br  Br78  1  0.00146096  0.75753538  0.50034049  1
  Br  Br79  1  -0.00028906  0.75500763  0.75098792  1
  Br  Br80  1  0.75117122  0.50116396  0.00121331  1
  Br  Br81  1  0.74493546  0.50053144  0.26613556  1
  Br  Br82  1  0.74869925  0.50504013  0.49082080  1
  Br  Br83  1  0.74865038  0.50378284  0.74389826  1
  Br  Br84  1  0.50020172  0.74596676  0.99105398  1
  Br  Br85  1  0.50729884  0.73972420  0.24866369  1
  Br  Br86  1  0.49857600  0.74796666  0.50503855  1
  Br  Br87  1  0.49532909  0.75011859  0.75679638  1
  Br  Br88  1  0.24866153  0.00289107  -0.00523946  1
  Br  Br89  1  0.25013480  -0.00036232  0.26100508  1
  Br  Br90  1  0.25461095  0.00143138  0.49124676  1
  Br  Br91  1  0.25006925  0.00193398  0.75540648  1
  Br  Br92  1  0.75816985  -0.00673613  0.00853947  1
  Br  Br93  1  0.76094005  -0.00302183  0.24286574  1
  Br  Br94  1  0.76035086  0.99743958  0.49651577  1
  Br  Br95  1  0.75546284  -0.00850444  0.75388578  1
  Br  Br96  1  0.12104730  0.13346966  0.12659110  1
  Br  Br97  1  0.12502716  0.13618679  0.37462730  1
  Br  Br98  1  0.12814735  0.12944310  0.62377449  1
  Br  Br99  1  0.13056982  0.12312834  0.87488418  1
  Br  Br100  1  0.62930330  0.11871096  0.12497253  1
  Br  Br101  1  0.62793174  0.11870334  0.37481002  1
  Br  Br102  1  0.62691108  0.12243045  0.62536075  1
  Br  Br103  1  0.62628699  0.11595859  0.87492940  1
  Br  Br104  1  0.36852912  0.37735961  0.12416010  1
  Br  Br105  1  0.36259028  0.37307162  0.37669890  1
  Br  Br106  1  0.36851492  0.38076530  0.62546607  1
  Br  Br107  1  0.36833940  0.37694541  0.87168329  1
  Br  Br108  1  0.11579956  0.63917649  0.12693087  1
  Br  Br109  1  0.11385347  0.64783990  0.38009579  1
  Br  Br110  1  0.11169834  0.63732417  0.62704998  1
  Br  Br111  1  0.11475407  0.65010163  0.87665237  1
  Br  Br112  1  0.86402994  0.40387358  0.13361290  1
  Br  Br113  1  0.86459551  0.38979713  0.37858837  1
  Br  Br114  1  0.87598776  0.38081978  0.62126469  1
  Br  Br115  1  0.87880182  0.36864645  0.87471802  1
  Br  Br116  1  0.65005301  0.61263967  0.13193858  1
  Br  Br117  1  0.63410759  0.61599192  0.37961705  1
  Br  Br118  1  0.61335187  0.62626836  0.62613299  1
  Br  Br119  1  0.62146262  0.62541514  0.87357458  1
  Br  Br120  1  0.37773404  0.86757556  0.12496666  1
  Br  Br121  1  0.37798894  0.87349378  0.37570791  1
  Br  Br122  1  0.37697183  0.86340824  0.62835223  1
  Br  Br123  1  0.36655542  0.88431756  0.87562903  1
  Br  Br124  1  0.88762617  0.86914095  0.12786025  1
  Br  Br125  1  0.90105385  0.87287438  0.37670822  1
  Br  Br126  1  0.88667769  0.86572599  0.62735453  1
  Br  Br127  1  0.89658111  0.86560188  0.87966623  1
  Br  Br128  1  0.87111560  0.12671869  0.12600350  1
  Br  Br129  1  0.88563527  0.13807010  0.37480913  1
  Br  Br130  1  0.87992706  0.12721267  0.62549564  1
  Br  Br131  1  0.88730467  0.12290700  0.87571355  1
  Br  Br132  1  0.37194207  0.12094165  0.12577879  1
  Br  Br133  1  0.36341466  0.11472213  0.37569188  1
  Br  Br134  1  0.37818455  0.12695050  0.62505707  1
  Br  Br135  1  0.36371059  0.11730195  0.87345077  1
  Br  Br136  1  0.12403886  0.39670359  0.12538754  1
  Br  Br137  1  0.10503410  0.37722832  0.37672647  1
  Br  Br138  1  0.12881634  0.39146698  0.62475355  1
  Br  Br139  1  0.11921934  0.37268735  0.87425677  1
  Br  Br140  1  0.88857073  0.64184537  0.12828640  1
  Br  Br141  1  0.87668077  0.63600753  0.37498884  1
  Br  Br142  1  0.88194256  0.63759707  0.62327049  1
  Br  Br143  1  0.87672592  0.62731339  0.87481794  1
  Br  Br144  1  0.62563851  0.37580446  0.12513268  1
  Br  Br145  1  0.62095285  0.37248007  0.38181539  1
  Br  Br146  1  0.61723335  0.37263788  0.62207463  1
  Br  Br147  1  0.62228998  0.36926928  0.87142751  1
  Br  Br148  1  0.36473432  0.61538658  0.12368199  1
  Br  Br149  1  0.37189324  0.62383633  0.37622456  1
  Br  Br150  1  0.35879943  0.62020195  0.62671837  1
  Br  Br151  1  0.37405830  0.63925329  0.87422131  1
  Br  Br152  1  0.11463841  0.86634316  0.12777447  1
  Br  Br153  1  0.13476219  0.89183708  0.37779249  1
  Br  Br154  1  0.11666373  0.86597371  0.62611341  1
  Br  Br155  1  0.13307354  0.89017993  0.87572190  1
  Br  Br156  1  0.63657791  0.87207650  0.12441636  1
  Br  Br157  1  0.63529571  0.87129546  0.37407469  1
  Br  Br158  1  0.62365186  0.86903649  0.62825498  1
  Br  Br159  1  0.61673892  0.86600754  0.87572796  1
