# generated using pymatgen
data_CsGaCl3
_symmetry_space_group_name_H-M   'P 1'
_cell_length_a   14.77642313
_cell_length_b   14.77642313
_cell_length_c   20.89701900
_cell_angle_alpha   90.00000000
_cell_angle_beta   90.00000000
_cell_angle_gamma   90.00000000
_symmetry_Int_Tables_number   1
_chemical_formula_structural   CsGaCl3
_chemical_formula_sum   'Cs32 Ga32 Cl96'
_cell_volume   4562.71114597
_cell_formula_units_Z   32
loop_
 _symmetry_equiv_pos_site_id
 _symmetry_equiv_pos_as_xyz
  1  'x, y, z'
loop_
 _atom_site_type_symbol
 _atom_site_label
 _atom_site_symmetry_multiplicity
 _atom_site_fract_x
 _atom_site_fract_y
 _atom_site_fract_z
 _atom_site_occupancy
  Cs  Cs0  1  0.99854900  0.99296316  -0.00268841  1
  Cs  Cs1  1  -0.00030584  0.99404942  0.24818120  1
  Cs  Cs2  1  -0.00619122  0.00196483  0.50230571  1
  Cs  Cs3  1  -0.00877217  -0.00284494  0.75171381  1
  Cs  Cs4  1  0.49995483  -0.00365382  0.99762395  1
  Cs  Cs5  1  0.50312813  -0.00426134  0.24996483  1
  Cs  Cs6  1  0.50996831  -0.00117832  0.50041793  1
  Cs  Cs7  1  0.50621800  0.00058474  0.75124919  1
  Cs  Cs8  1  0.25349928  0.25085639  0.99845750  1
  Cs  Cs9  1  0.25517639  0.25020480  0.24719916  1
  Cs  Cs10  1  0.25081919  0.25142605  0.50336686  1
  Cs  Cs11  1  0.25080822  0.25183782  0.75048586  1
  Cs  Cs12  1  -0.00241279  0.50838548  -0.00063187  1
  Cs  Cs13  1  -0.00232899  0.50562894  0.24767203  1
  Cs  Cs14  1  -0.00566765  0.50040704  0.50215005  1
  Cs  Cs15  1  -0.00418814  0.50225609  0.75147128  1
  Cs  Cs16  1  0.74669183  0.25379745  0.00008814  1
  Cs  Cs17  1  0.74461801  0.25309161  0.24702835  1
  Cs  Cs18  1  0.74694626  0.25176868  0.50466692  1
  Cs  Cs19  1  0.74928269  0.25154907  0.74937542  1
  Cs  Cs20  1  0.50106527  0.50390854  -0.00137165  1
  Cs  Cs21  1  0.50102608  0.50222270  0.24908373  1
  Cs  Cs22  1  0.50149054  0.50064777  0.50096981  1
  Cs  Cs23  1  0.50319650  0.50179966  0.75165907  1
  Cs  Cs24  1  0.24949902  0.74833896  0.99655679  1
  Cs  Cs25  1  0.25495356  0.74951568  0.25222468  1
  Cs  Cs26  1  0.25588643  0.74652579  0.49655319  1
  Cs  Cs27  1  0.24720373  0.74560612  0.75493269  1
  Cs  Cs28  1  0.74966313  0.75073983  -0.00027440  1
  Cs  Cs29  1  0.74920771  0.75037847  0.24902820  1
  Cs  Cs30  1  0.74850069  0.75480417  0.50240244  1
  Cs  Cs31  1  0.74932356  0.75394447  0.75067859  1
  Ga  Ga32  1  -0.00374703  0.25868471  0.11465606  1
  Ga  Ga33  1  0.01028026  0.24020230  0.35892612  1
  Ga  Ga34  1  0.00442708  0.25042944  0.61360782  1
  Ga  Ga35  1  0.01181970  0.23859216  0.87271309  1
  Ga  Ga36  1  0.50007610  0.24797389  0.11749871  1
  Ga  Ga37  1  0.50136974  0.25252951  0.36365518  1
  Ga  Ga38  1  0.49457536  0.25077193  0.61511089  1
  Ga  Ga39  1  0.48985683  0.24068605  0.87159100  1
  Ga  Ga40  1  0.24523488  0.49578635  0.12454691  1
  Ga  Ga41  1  0.24936995  0.49968880  0.37474503  1
  Ga  Ga42  1  0.24891535  0.51975934  0.62541257  1
  Ga  Ga43  1  0.25017434  0.49993763  0.87494780  1
  Ga  Ga44  1  0.00195172  0.75120689  0.12536685  1
  Ga  Ga45  1  0.01378535  0.76322044  0.37688029  1
  Ga  Ga46  1  0.98660084  0.74876057  0.62358672  1
  Ga  Ga47  1  -0.00564628  0.74773044  0.87327206  1
  Ga  Ga48  1  0.74779091  0.50321877  0.12364265  1
  Ga  Ga49  1  0.76298098  0.51081602  0.37490132  1
  Ga  Ga50  1  0.74915472  0.49503897  0.62581556  1
  Ga  Ga51  1  0.75811542  0.48936726  0.87547796  1
  Ga  Ga52  1  0.49720339  0.75179394  0.13327485  1
  Ga  Ga53  1  0.50611994  0.74894793  0.38047642  1
  Ga  Ga54  1  0.51149251  0.74839221  0.62812834  1
  Ga  Ga55  1  0.50262972  0.74697857  0.87594389  1
  Ga  Ga56  1  0.24045898  0.00828868  0.12458731  1
  Ga  Ga57  1  0.26482675  0.00164125  0.37471320  1
  Ga  Ga58  1  0.24916136  -0.02588744  0.62519287  1
  Ga  Ga59  1  0.25002209  0.98614420  0.87506994  1
  Ga  Ga60  1  0.75911658  0.00989556  0.12457440  1
  Ga  Ga61  1  0.75332722  0.00277220  0.37416159  1
  Ga  Ga62  1  0.74925358  0.00442522  0.62660043  1
  Ga  Ga63  1  0.74791489  0.00124072  0.87746870  1
  Cl  Cl64  1  0.00021045  0.25346165  0.98622001  1
  Cl  Cl65  1  -0.00247707  0.25315844  0.25046146  1
  Cl  Cl66  1  0.00326455  0.25140785  0.50371328  1
  Cl  Cl67  1  -0.00308723  0.25432774  0.76287279  1
  Cl  Cl68  1  0.50037349  0.25287908  0.98854407  1
  Cl  Cl69  1  0.49758771  0.24971979  0.25346070  1
  Cl  Cl70  1  0.49419479  0.25048649  0.50437124  1
  Cl  Cl71  1  0.50357183  0.25545564  0.75910606  1
  Cl  Cl72  1  0.25351617  0.50255343  0.01004388  1
  Cl  Cl73  1  0.25415433  0.50247230  0.24031317  1
  Cl  Cl74  1  0.24719613  0.48391674  0.51781392  1
  Cl  Cl75  1  0.24940649  0.48667115  0.73334239  1
  Cl  Cl76  1  0.00244773  0.75066819  0.00580563  1
  Cl  Cl77  1  0.00395441  0.74979522  0.26608084  1
  Cl  Cl78  1  -0.00061493  0.74762109  0.48714889  1
  Cl  Cl79  1  -0.00213984  0.74796002  0.74398137  1
  Cl  Cl80  1  0.74554126  0.50376753  0.98904985  1
  Cl  Cl81  1  0.74613201  0.49638032  0.26229439  1
  Cl  Cl82  1  0.74766565  0.49402173  0.48756029  1
  Cl  Cl83  1  0.74653504  0.49950483  0.76195755  1
  Cl  Cl84  1  0.49625432  0.74892200  0.98899790  1
  Cl  Cl85  1  0.49815595  0.74955472  0.24271530  1
  Cl  Cl86  1  0.50255389  0.74920449  0.50342336  1
  Cl  Cl87  1  0.49853480  0.74902240  0.76329323  1
  Cl  Cl88  1  0.24972556  -0.00257178  0.00821918  1
  Cl  Cl89  1  0.25544140  0.99797047  0.24333528  1
  Cl  Cl90  1  0.25051505  0.01916643  0.52126370  1
  Cl  Cl91  1  0.24781994  0.01434278  0.72994746  1
  Cl  Cl92  1  0.74415004  -0.00274793  0.01469544  1
  Cl  Cl93  1  0.74607335  -0.00204965  0.23507543  1
  Cl  Cl94  1  0.75286065  0.01027774  0.49492412  1
  Cl  Cl95  1  0.74773845  0.00881147  0.75659800  1
  Cl  Cl96  1  0.13117659  0.11911259  0.12602654  1
  Cl  Cl97  1  0.11985114  0.13428859  0.37293963  1
  Cl  Cl98  1  0.11524552  0.14033579  0.63031693  1
  Cl  Cl99  1  0.12215928  0.12931544  0.87423132  1
  Cl  Cl100  1  0.62922606  0.11271801  0.12458384  1
  Cl  Cl101  1  0.61554014  0.14235410  0.37614778  1
  Cl  Cl102  1  0.60774932  0.14038289  0.62748943  1
  Cl  Cl103  1  0.61730497  0.14992435  0.87579824  1
  Cl  Cl104  1  0.36740422  0.39399375  0.12498153  1
  Cl  Cl105  1  0.38291947  0.36057943  0.37595173  1
  Cl  Cl106  1  0.38099065  0.36376063  0.62842154  1
  Cl  Cl107  1  0.39532892  0.36627980  0.87438605  1
  Cl  Cl108  1  0.14655936  0.61983554  0.12673642  1
  Cl  Cl109  1  0.11653957  0.63161147  0.37753744  1
  Cl  Cl110  1  0.12901232  0.61596413  0.62295315  1
  Cl  Cl111  1  0.12770207  0.61536560  0.87423237  1
  Cl  Cl112  1  0.87337675  0.37978073  0.12271295  1
  Cl  Cl113  1  0.85377761  0.38215933  0.37449496  1
  Cl  Cl114  1  0.89413969  0.36195723  0.62911850  1
  Cl  Cl115  1  0.86920058  0.38019880  0.87710129  1
  Cl  Cl116  1  0.60710654  0.64101829  0.11871248  1
  Cl  Cl117  1  0.63769909  0.60603457  0.37501495  1
  Cl  Cl118  1  0.62689585  0.61786016  0.62669205  1
  Cl  Cl119  1  0.61667736  0.63375519  0.87628995  1
  Cl  Cl120  1  0.38491963  0.86011074  0.11805444  1
  Cl  Cl121  1  0.37933753  0.87551452  0.37690698  1
  Cl  Cl122  1  0.37001247  0.88170967  0.62626609  1
  Cl  Cl123  1  0.38354952  0.86399759  0.87365534  1
  Cl  Cl124  1  0.86433868  0.88327979  0.12655103  1
  Cl  Cl125  1  0.88666223  0.86731587  0.37402728  1
  Cl  Cl126  1  0.87534830  0.88059309  0.62417515  1
  Cl  Cl127  1  0.86754648  0.87961479  0.87724651  1
  Cl  Cl128  1  0.87090491  0.12064351  0.12460915  1
  Cl  Cl129  1  0.88572882  0.15388969  0.37662768  1
  Cl  Cl130  1  0.89224177  0.14050872  0.62896245  1
  Cl  Cl131  1  0.88436616  0.14326054  0.87697128  1
  Cl  Cl132  1  0.36625081  0.10243888  0.12426617  1
  Cl  Cl133  1  0.38983028  0.13827435  0.37845259  1
  Cl  Cl134  1  0.38381677  0.14041632  0.63113603  1
  Cl  Cl135  1  0.38102581  0.13029927  0.87283225  1
  Cl  Cl136  1  0.13474175  0.38332107  0.12513305  1
  Cl  Cl137  1  0.09348129  0.36664495  0.37762250  1
  Cl  Cl138  1  0.11725089  0.36273241  0.62913845  1
  Cl  Cl139  1  0.11094228  0.36465835  0.87525579  1
  Cl  Cl140  1  0.87833164  0.63287435  0.12899666  1
  Cl  Cl141  1  0.87295917  0.61953495  0.37478912  1
  Cl  Cl142  1  0.87227168  0.61844425  0.62270008  1
  Cl  Cl143  1  0.85408240  0.61435115  0.87485052  1
  Cl  Cl144  1  0.61792511  0.37062929  0.12307976  1
  Cl  Cl145  1  0.60846435  0.36581806  0.37833098  1
  Cl  Cl146  1  0.60528994  0.36280176  0.62770712  1
  Cl  Cl147  1  0.63346764  0.39345864  0.87609785  1
  Cl  Cl148  1  0.38313279  0.63614142  0.12112296  1
  Cl  Cl149  1  0.37085174  0.61496053  0.37656600  1
  Cl  Cl150  1  0.36877461  0.61610259  0.62602401  1
  Cl  Cl151  1  0.38344291  0.63010403  0.87405326  1
  Cl  Cl152  1  0.14700711  0.88251758  0.12838565  1
  Cl  Cl153  1  0.12465336  0.87520421  0.37945693  1
  Cl  Cl154  1  0.12896009  0.88062139  0.62147484  1
  Cl  Cl155  1  0.12323378  0.87113934  0.87214047  1
  Cl  Cl156  1  0.60910955  0.86438026  0.11996556  1
  Cl  Cl157  1  0.63625721  0.87789697  0.37323599  1
  Cl  Cl158  1  0.62463926  0.88028129  0.62671937  1
  Cl  Cl159  1  0.61456808  0.86681724  0.87743876  1
