# generated using pymatgen
data_CsGeI3
_symmetry_space_group_name_H-M   'P 1'
_cell_length_a   16.96564129
_cell_length_b   16.96564129
_cell_length_c   23.99304000
_cell_angle_alpha   90.00000000
_cell_angle_beta   90.00000000
_cell_angle_gamma   90.00000000
_symmetry_Int_Tables_number   1
_chemical_formula_structural   CsGeI3
_chemical_formula_sum   'Cs32 Ge32 I96'
_cell_volume   6905.98830373
_cell_formula_units_Z   32
loop_
 _symmetry_equiv_pos_site_id
 _symmetry_equiv_pos_as_xyz
  1  'x, y, z'
loop_
 _atom_site_type_symbol
 _atom_site_label
 _atom_site_symmetry_multiplicity
 _atom_site_fract_x
 _atom_site_fract_y
 _atom_site_fract_z
 _atom_site_occupancy
  Cs  Cs0  1  0.99620704  0.00159060  0.99525578  1
  Cs  Cs1  1  0.00680585  0.98810352  0.25341638  1
  Cs  Cs2  1  0.00341777  0.00248247  0.50632273  1
  Cs  Cs3  1  0.00335281  -0.00306651  0.75146102  1
  Cs  Cs4  1  0.49320700  0.00556984  0.99679680  1
  Cs  Cs5  1  0.50241199  0.98366296  0.24536656  1
  Cs  Cs6  1  0.49495096  0.00565628  0.49677827  1
  Cs  Cs7  1  0.49395477  0.99885578  0.74741164  1
  Cs  Cs8  1  0.23841402  0.25151731  0.99681302  1
  Cs  Cs9  1  0.25099864  0.24398302  0.25096336  1
  Cs  Cs10  1  0.24475191  0.25939168  0.50328979  1
  Cs  Cs11  1  0.24488705  0.25032991  0.75052909  1
  Cs  Cs12  1  -0.00060402  0.50529258  0.99976445  1
  Cs  Cs13  1  0.00249519  0.48360976  0.25048275  1
  Cs  Cs14  1  0.98949101  0.50915473  0.49989505  1
  Cs  Cs15  1  0.99681934  0.49852384  0.75171632  1
  Cs  Cs16  1  0.74938137  0.25493892  0.99097115  1
  Cs  Cs17  1  0.74981243  0.23645490  0.24822386  1
  Cs  Cs18  1  0.75134914  0.25599104  0.50385399  1
  Cs  Cs19  1  0.75541639  0.24408934  0.74887807  1
  Cs  Cs20  1  0.49443762  0.49844797  0.99540500  1
  Cs  Cs21  1  0.50786012  0.48591593  0.24913043  1
  Cs  Cs22  1  0.50214548  0.50067570  0.50113224  1
  Cs  Cs23  1  0.50590918  0.49430021  0.74546987  1
  Cs  Cs24  1  0.25001905  0.75509152  0.99156495  1
  Cs  Cs25  1  0.25373780  0.73548739  0.25041848  1
  Cs  Cs26  1  0.25072509  0.75068445  0.50403979  1
  Cs  Cs27  1  0.25483438  0.74411334  0.75012824  1
  Cs  Cs28  1  0.74417447  0.75647117  0.99591262  1
  Cs  Cs29  1  0.74613202  0.73909231  0.25093873  1
  Cs  Cs30  1  0.74455426  0.76352672  0.50367956  1
  Cs  Cs31  1  0.74421079  0.74577595  0.74505223  1
  Ge  Ge32  1  0.01114473  0.24325577  0.13383975  1
  Ge  Ge33  1  0.01546092  0.24897370  0.38226312  1
  Ge  Ge34  1  0.99924276  0.23606992  0.63015004  1
  Ge  Ge35  1  0.99930856  0.26442789  0.88075841  1
  Ge  Ge36  1  0.51777941  0.24426271  0.11684814  1
  Ge  Ge37  1  0.51288914  0.24587717  0.36285074  1
  Ge  Ge38  1  0.50205155  0.26216548  0.61623781  1
  Ge  Ge39  1  0.49836295  0.26240238  0.86530268  1
  Ge  Ge40  1  0.26428411  0.50051728  0.11581556  1
  Ge  Ge41  1  0.26737718  0.50279818  0.37040810  1
  Ge  Ge42  1  0.23357137  0.50027030  0.62010757  1
  Ge  Ge43  1  0.25289295  0.51259201  0.86771335  1
  Ge  Ge44  1  0.01866217  0.74542707  0.12161402  1
  Ge  Ge45  1  0.01334240  0.74785891  0.36656907  1
  Ge  Ge46  1  0.00332905  0.76380510  0.61920533  1
  Ge  Ge47  1  0.99867448  0.76148274  0.86771862  1
  Ge  Ge48  1  0.76633288  0.50562984  0.12980820  1
  Ge  Ge49  1  0.76409245  0.50446361  0.38215052  1
  Ge  Ge50  1  0.76493708  0.50193003  0.63007474  1
  Ge  Ge51  1  0.74766570  0.51339832  0.88334466  1
  Ge  Ge52  1  0.51346142  0.74241922  0.13010338  1
  Ge  Ge53  1  0.51662224  0.74990994  0.37876263  1
  Ge  Ge54  1  0.49882726  0.73459673  0.62801849  1
  Ge  Ge55  1  0.50190563  0.76479734  0.87834678  1
  Ge  Ge56  1  0.26312607  0.00095319  0.11654354  1
  Ge  Ge57  1  0.26632574  0.00458234  0.36781441  1
  Ge  Ge58  1  0.26222500  0.99825560  0.61592758  1
  Ge  Ge59  1  0.24935100  0.01519753  0.86935718  1
  Ge  Ge60  1  0.76766428  0.00186084  0.12900028  1
  Ge  Ge61  1  0.76489739  0.00525355  0.38361544  1
  Ge  Ge62  1  0.73911398  -0.00024032  0.63368079  1
  Ge  Ge63  1  0.74540623  0.01182873  0.88043396  1
  I  I64  1  0.00024936  0.26279027  0.99689974  1
  I  I65  1  0.98487896  0.23446466  0.24843682  1
  I  I66  1  0.00893407  0.27004468  0.49802554  1
  I  I67  1  0.99214948  0.23289628  0.74683692  1
  I  I68  1  0.51822542  0.24833083  0.99978081  1
  I  I69  1  0.47966533  0.24672203  0.24889644  1
  I  I70  1  0.51802800  0.25015006  0.50056804  1
  I  I71  1  0.47619486  0.24232003  0.75046354  1
  I  I72  1  0.23267733  0.48751452  0.00200197  1
  I  I73  1  0.27039747  0.49989778  0.25372682  1
  I  I74  1  0.22063483  0.49864765  0.50363873  1
  I  I75  1  0.27380212  0.50216302  0.75225134  1
  I  I76  1  0.01960739  0.74688877  0.00423457  1
  I  I77  1  0.97635637  0.74923426  0.25345290  1
  I  I78  1  0.01979731  0.75392714  0.50372113  1
  I  I79  1  0.97704079  0.74006553  0.75351704  1
  I  I80  1  0.72953136  0.48864744  0.99702656  1
  I  I81  1  0.75764282  0.50663334  0.24662629  1
  I  I82  1  0.73753954  0.48807444  0.49672927  1
  I  I83  1  0.75807662  0.50772064  0.74643233  1
  I  I84  1  0.50716468  0.76652357  0.99426744  1
  I  I85  1  0.48806082  0.73566601  0.24509363  1
  I  I86  1  0.50787322  0.76765435  0.49483126  1
  I  I87  1  0.49132810  0.72974579  0.74433266  1
  I  I88  1  0.23411869  0.98554429  0.00168045  1
  I  I89  1  0.25675387  0.01356283  0.25151082  1
  I  I90  1  0.23913363  0.98230604  0.50136038  1
  I  I91  1  0.25545014  0.01639555  0.75238464  1
  I  I92  1  0.72827980  0.99439742  0.99574377  1
  I  I93  1  0.76913065  -0.00080897  0.24597852  1
  I  I94  1  0.72960948  0.00735164  0.49739911  1
  I  I95  1  0.77006820  0.99278393  0.74740679  1
  I  I96  1  0.10149175  0.10683333  0.12532165  1
  I  I97  1  0.10752189  0.11280926  0.38235762  1
  I  I98  1  0.12209722  0.12706861  0.62264511  1
  I  I99  1  0.11906903  0.11700280  0.87624557  1
  I  I100  1  0.60417385  0.10498697  0.12835550  1
  I  I101  1  0.60564593  0.11032232  0.36058041  1
  I  I102  1  0.62665358  0.11995322  0.63954333  1
  I  I103  1  0.62054742  0.11643366  0.86455776  1
  I  I104  1  0.38631117  0.38874885  0.11880188  1
  I  I105  1  0.38404106  0.38897337  0.38626337  1
  I  I106  1  0.38165489  0.37509879  0.61593660  1
  I  I107  1  0.37582987  0.37008368  0.88328667  1
  I  I108  1  0.10678423  0.60736321  0.13504690  1
  I  I109  1  0.10646497  0.61252976  0.36644249  1
  I  I110  1  0.12460869  0.62060416  0.63852522  1
  I  I111  1  0.12346354  0.61610615  0.86815641  1
  I  I112  1  0.88770839  0.39473807  0.12097293  1
  I  I113  1  0.88318621  0.39085854  0.37495585  1
  I  I114  1  0.87880875  0.38322918  0.62436089  1
  I  I115  1  0.87615093  0.37366137  0.86934062  1
  I  I116  1  0.60285412  0.60561817  0.12175039  1
  I  I117  1  0.60733580  0.61274200  0.37431771  1
  I  I118  1  0.62033280  0.62465199  0.61763162  1
  I  I119  1  0.62058264  0.61770066  0.87099632  1
  I  I120  1  0.38491157  0.88984860  0.11946048  1
  I  I121  1  0.38456372  0.88980708  0.36950436  1
  I  I122  1  0.37413965  0.87839443  0.62701473  1
  I  I123  1  0.37675231  0.87330352  0.86896403  1
  I  I124  1  0.88959268  0.89237242  0.11647948  1
  I  I125  1  0.88578884  0.89347053  0.39056970  1
  I  I126  1  0.88190712  0.87584340  0.61559911  1
  I  I127  1  0.87840618  0.87260158  0.88114338  1
  I  I128  1  0.85329400  0.13958720  0.11121190  1
  I  I129  1  0.85683261  0.14133177  0.38423691  1
  I  I130  1  0.87555053  0.12942501  0.61295952  1
  I  I131  1  0.86897933  0.12238796  0.88153176  1
  I  I132  1  0.35376915  0.13797533  0.11162210  1
  I  I133  1  0.35816294  0.13792148  0.38749612  1
  I  I134  1  0.37132852  0.12228267  0.61174452  1
  I  I135  1  0.36697807  0.12567019  0.88776388  1
  I  I136  1  0.13510936  0.35350047  0.13696845  1
  I  I137  1  0.13493483  0.36012659  0.36436807  1
  I  I138  1  0.12814384  0.37667800  0.63919966  1
  I  I139  1  0.12493685  0.36885570  0.86616890  1
  I  I140  1  0.85403616  0.64250390  0.11642762  1
  I  I141  1  0.85665348  0.63982226  0.39087800  1
  I  I142  1  0.86873936  0.62799384  0.61646650  1
  I  I143  1  0.86904106  0.62304205  0.89158750  1
  I  I144  1  0.63963789  0.35291745  0.13057091  1
  I  I145  1  0.63447319  0.35812991  0.36040231  1
  I  I146  1  0.62547599  0.36908417  0.63276061  1
  I  I147  1  0.62459755  0.36756351  0.85721971  1
  I  I148  1  0.35567980  0.63668496  0.10792046  1
  I  I149  1  0.35944016  0.63754084  0.38556488  1
  I  I150  1  0.37658129  0.62648831  0.61109286  1
  I  I151  1  0.37170432  0.62345834  0.88487760  1
  I  I152  1  0.13929606  0.85459899  0.13863600  1
  I  I153  1  0.13594510  0.85829640  0.36371089  1
  I  I154  1  0.12430885  0.87178661  0.64061107  1
  I  I155  1  0.12553336  0.86605422  0.86227701  1
  I  I156  1  0.63707453  0.85223630  0.13165460  1
  I  I157  1  0.63679300  0.86095826  0.36327736  1
  I  I158  1  0.62738509  0.87717030  0.63138181  1
  I  I159  1  0.62549234  0.86870679  0.85768904  1
