# generated using pymatgen
data_CsGeCl3
_symmetry_space_group_name_H-M   'P 1'
_cell_length_a   15.10360003
_cell_length_b   15.10360003
_cell_length_c   21.35971700
_cell_angle_alpha   90.00000000
_cell_angle_beta   90.00000000
_cell_angle_gamma   90.00000000
_symmetry_Int_Tables_number   1
_chemical_formula_structural   CsGeCl3
_chemical_formula_sum   'Cs32 Ge32 Cl96'
_cell_volume   4872.55159637
_cell_formula_units_Z   32
loop_
 _symmetry_equiv_pos_site_id
 _symmetry_equiv_pos_as_xyz
  1  'x, y, z'
loop_
 _atom_site_type_symbol
 _atom_site_label
 _atom_site_symmetry_multiplicity
 _atom_site_fract_x
 _atom_site_fract_y
 _atom_site_fract_z
 _atom_site_occupancy
  Cl  Cl0  1  0.00082978  0.25159373  0.00750054  1
  Cl  Cl1  1  -0.00033334  0.24977877  0.25746466  1
  Cl  Cl2  1  0.00132698  0.25071923  0.50760230  1
  Cl  Cl3  1  0.00177097  0.25154200  0.75756393  1
  Cl  Cl4  1  0.50072506  0.24916728  0.00761192  1
  Cl  Cl5  1  0.49991249  0.25207087  0.25785045  1
  Cl  Cl6  1  0.49810988  0.25108188  0.50785144  1
  Cl  Cl7  1  0.49818164  0.25181663  0.75772228  1
  Cl  Cl8  1  0.25043966  0.50189506  0.99166306  1
  Cl  Cl9  1  0.25013528  0.50021717  0.24175832  1
  Cl  Cl10  1  0.24852429  0.50296824  0.49173017  1
  Cl  Cl11  1  0.25071789  0.50248913  0.74171135  1
  Cl  Cl12  1  0.00008696  0.74936267  0.00690682  1
  Cl  Cl13  1  -0.00084456  0.75174815  0.25693243  1
  Cl  Cl14  1  -0.00208410  0.75145696  0.50689221  1
  Cl  Cl15  1  -0.00204974  0.75132733  0.75694051  1
  Cl  Cl16  1  0.75090210  0.50087943  0.00726500  1
  Cl  Cl17  1  0.74942509  0.50024610  0.25724677  1
  Cl  Cl18  1  0.75063658  0.50081526  0.50728816  1
  Cl  Cl19  1  0.74919159  0.49999059  0.75726832  1
  Cl  Cl20  1  0.50167313  0.75122559  0.00705054  1
  Cl  Cl21  1  0.50011856  0.75084017  0.25713718  1
  Cl  Cl22  1  0.50125826  0.75027182  0.50706390  1
  Cl  Cl23  1  0.50202690  0.75137896  0.75689896  1
  Cl  Cl24  1  0.24996511  0.99896722  0.99207453  1
  Cl  Cl25  1  0.25039280  -0.00051807  0.24200111  1
  Cl  Cl26  1  0.25020418  0.00064647  0.49192993  1
  Cl  Cl27  1  0.24971473  -0.00075253  0.74203544  1
  Cl  Cl28  1  0.75143509  0.00253143  0.00719088  1
  Cl  Cl29  1  0.75065231  -0.00021154  0.25732902  1
  Cl  Cl30  1  0.74746106  0.00201439  0.50730458  1
  Cl  Cl31  1  0.74997950  0.00316996  0.75714132  1
  Cl  Cl32  1  0.13185527  0.11698351  0.12566437  1
  Cl  Cl33  1  0.13284478  0.11875469  0.37543009  1
  Cl  Cl34  1  0.13403786  0.11939463  0.62584041  1
  Cl  Cl35  1  0.13477363  0.12013024  0.87617028  1
  Cl  Cl36  1  0.63213541  0.11720015  0.12520419  1
  Cl  Cl37  1  0.61767422  0.13515282  0.37475240  1
  Cl  Cl38  1  0.61774774  0.13578230  0.62533604  1
  Cl  Cl39  1  0.63245139  0.11842159  0.87459113  1
  Cl  Cl40  1  0.38489579  0.36995368  0.12314279  1
  Cl  Cl41  1  0.36646375  0.38397238  0.37588560  1
  Cl  Cl42  1  0.36567490  0.38382207  0.62475591  1
  Cl  Cl43  1  0.38246751  0.36857160  0.87472441  1
  Cl  Cl44  1  0.13158680  0.61671717  0.12562831  1
  Cl  Cl45  1  0.11738062  0.63487033  0.37289368  1
  Cl  Cl46  1  0.11765540  0.63575321  0.62360253  1
  Cl  Cl47  1  0.13270185  0.61879765  0.87447182  1
  Cl  Cl48  1  0.88443828  0.36958997  0.12510939  1
  Cl  Cl49  1  0.88195888  0.36801896  0.37465913  1
  Cl  Cl50  1  0.88223167  0.36778973  0.62461528  1
  Cl  Cl51  1  0.88128255  0.36662503  0.87442331  1
  Cl  Cl52  1  0.63177598  0.61707635  0.12429238  1
  Cl  Cl53  1  0.63280700  0.61877823  0.37432858  1
  Cl  Cl54  1  0.63399847  0.61927547  0.62442734  1
  Cl  Cl55  1  0.63502788  0.62015967  0.87471704  1
  Cl  Cl56  1  0.38486233  0.86998133  0.12289640  1
  Cl  Cl57  1  0.38197246  0.86798818  0.37337555  1
  Cl  Cl58  1  0.38254655  0.86787097  0.62291955  1
  Cl  Cl59  1  0.38168288  0.86680650  0.87288720  1
  Cl  Cl60  1  0.88486885  0.86985823  0.12403069  1
  Cl  Cl61  1  0.86633734  0.88376111  0.37545533  1
  Cl  Cl62  1  0.86599621  0.88416912  0.62413784  1
  Cl  Cl63  1  0.88272553  0.86876347  0.87482772  1
  Cl  Cl64  1  0.86600382  0.11970754  0.12509425  1
  Cl  Cl65  1  0.86818069  0.11738938  0.37492586  1
  Cl  Cl66  1  0.88313045  0.13432863  0.62450265  1
  Cl  Cl67  1  0.88418704  0.13311757  0.87451704  1
  Cl  Cl68  1  0.36551047  0.12000407  0.12575279  1
  Cl  Cl69  1  0.36654770  0.11937733  0.37524354  1
  Cl  Cl70  1  0.36747360  0.11831586  0.62597927  1
  Cl  Cl71  1  0.36804923  0.11732662  0.87585413  1
  Cl  Cl72  1  0.11832515  0.36722805  0.12398712  1
  Cl  Cl73  1  0.11552830  0.36995771  0.37318875  1
  Cl  Cl74  1  0.13197968  0.38549778  0.62511960  1
  Cl  Cl75  1  0.13190442  0.38535963  0.87505513  1
  Cl  Cl76  1  0.86557869  0.61983587  0.12487123  1
  Cl  Cl77  1  0.86648138  0.61927509  0.37377334  1
  Cl  Cl78  1  0.86755762  0.61830562  0.62476747  1
  Cl  Cl79  1  0.86834690  0.61705115  0.87391992  1
  Cl  Cl80  1  0.61854534  0.36727714  0.12433344  1
  Cl  Cl81  1  0.61755273  0.36856882  0.37570159  1
  Cl  Cl82  1  0.61685680  0.36896157  0.62450472  1
  Cl  Cl83  1  0.61619561  0.36906666  0.87504806  1
  Cl  Cl84  1  0.36527411  0.62015783  0.12500494  1
  Cl  Cl85  1  0.36806173  0.61755641  0.37506296  1
  Cl  Cl86  1  0.38297924  0.63444902  0.62349445  1
  Cl  Cl87  1  0.38401340  0.63330089  0.87318038  1
  Cl  Cl88  1  0.11868142  0.86678738  0.12275656  1
  Cl  Cl89  1  0.11720851  0.86858639  0.37316259  1
  Cl  Cl90  1  0.11644342  0.86913020  0.62280065  1
  Cl  Cl91  1  0.11642045  0.86882085  0.87285234  1
  Cl  Cl92  1  0.61848773  0.86748707  0.12468499  1
  Cl  Cl93  1  0.61522791  0.87037140  0.37465663  1
  Cl  Cl94  1  0.63243930  0.88499536  0.62512064  1
  Cl  Cl95  1  0.63257704  0.88488435  0.87450080  1
  Cs  Cs96  1  0.00014257  0.00184153  0.99930907  1
  Cs  Cs97  1  0.00016996  0.00165401  0.24938056  1
  Cs  Cs98  1  0.00007020  0.00156195  0.49921356  1
  Cs  Cs99  1  -0.00013584  0.00144698  0.74923098  1
  Cs  Cs100  1  0.49995366  0.00144764  0.99928670  1
  Cs  Cs101  1  0.50024394  0.00215574  0.24930159  1
  Cs  Cs102  1  0.49980942  0.00160884  0.49925538  1
  Cs  Cs103  1  0.49975279  0.00135246  0.74934040  1
  Cs  Cs104  1  0.25000603  0.25218163  -0.00012754  1
  Cs  Cs105  1  0.25008095  0.25206375  0.24972210  1
  Cs  Cs106  1  0.24982349  0.25161509  0.49983703  1
  Cs  Cs107  1  0.24989573  0.25169531  0.74979248  1
  Cs  Cs108  1  0.00010329  0.50153405  -0.00086161  1
  Cs  Cs109  1  0.00004276  0.50202575  0.24922514  1
  Cs  Cs110  1  0.00000333  0.50191916  0.49889396  1
  Cs  Cs111  1  0.99982848  0.50153141  0.74916635  1
  Cs  Cs112  1  0.74998519  0.25164451  -0.00092756  1
  Cs  Cs113  1  0.75020606  0.25174810  0.24920598  1
  Cs  Cs114  1  0.75034798  0.25151982  0.49934462  1
  Cs  Cs115  1  0.74980412  0.25147323  0.74911938  1
  Cs  Cs116  1  0.49999788  0.50213688  -0.00087644  1
  Cs  Cs117  1  0.50019237  0.50197566  0.24921676  1
  Cs  Cs118  1  0.49994589  0.50156567  0.49935145  1
  Cs  Cs119  1  0.49978722  0.50147168  0.74923396  1
  Cs  Cs120  1  0.25004008  0.75145945  -0.00099738  1
  Cs  Cs121  1  0.25023263  0.75168898  0.24908539  1
  Cs  Cs122  1  0.25011285  0.75162709  0.49923061  1
  Cs  Cs123  1  0.24972211  0.75141209  0.74894515  1
  Cs  Cs124  1  0.75013389  0.75193884  0.99888644  1
  Cs  Cs125  1  0.75002804  0.75209350  0.24904665  1
  Cs  Cs126  1  0.74978258  0.75171167  0.49906013  1
  Cs  Cs127  1  0.74997364  0.75162508  0.74890219  1
  Ge  Ge128  1  0.00005988  0.25788469  0.12139817  1
  Ge  Ge129  1  -0.00021396  0.25800521  0.37121566  1
  Ge  Ge130  1  0.99378695  0.25153080  0.62151879  1
  Ge  Ge131  1  0.99360564  0.25155836  0.87140427  1
  Ge  Ge132  1  0.50066928  0.25784557  0.12135909  1
  Ge  Ge133  1  0.50671205  0.25215802  0.37187028  1
  Ge  Ge134  1  0.50607354  0.25187824  0.62168016  1
  Ge  Ge135  1  0.49950934  0.25798336  0.87163056  1
  Ge  Ge136  1  0.24993275  0.50771212  0.12756162  1
  Ge  Ge137  1  0.25631345  0.50182361  0.37754663  1
  Ge  Ge138  1  0.24968166  0.49569138  0.62749161  1
  Ge  Ge139  1  0.24333255  0.50193659  0.87743213  1
  Ge  Ge140  1  0.00035916  0.75771891  0.12085490  1
  Ge  Ge141  1  0.00643599  0.75197743  0.37081180  1
  Ge  Ge142  1  0.00578251  0.75188602  0.62079218  1
  Ge  Ge143  1  -0.00052305  0.75789701  0.87091980  1
  Ge  Ge144  1  0.75006346  0.50797879  0.12101027  1
  Ge  Ge145  1  0.75012572  0.50819472  0.37096368  1
  Ge  Ge146  1  0.75024491  0.50774035  0.62099731  1
  Ge  Ge147  1  0.74993953  0.50779088  0.87101907  1
  Ge  Ge148  1  0.50041125  0.75806221  0.12102289  1
  Ge  Ge149  1  0.49994451  0.75811913  0.37104924  1
  Ge  Ge150  1  0.49406765  0.75140334  0.62091556  1
  Ge  Ge151  1  0.49379113  0.75155289  0.87079027  1
  Ge  Ge152  1  0.25010072  0.00789756  0.12788134  1
  Ge  Ge153  1  0.25023319  0.00828728  0.37776386  1
  Ge  Ge154  1  0.25022108  0.00777167  0.62793351  1
  Ge  Ge155  1  0.24980320  0.00783664  0.87799393  1
  Ge  Ge156  1  0.75029041  0.00783182  0.12097596  1
  Ge  Ge157  1  0.75636174  0.00152163  0.37116255  1
  Ge  Ge158  1  0.74952606  0.99569271  0.62102995  1
  Ge  Ge159  1  0.74358068  0.00192054  0.87092303  1
