# generated using pymatgen
data_CsGeBr3
_symmetry_space_group_name_H-M   'P 1'
_cell_length_a   15.85130464
_cell_length_b   15.85130464
_cell_length_c   22.41713000
_cell_angle_alpha   90.00000000
_cell_angle_beta   90.00000000
_cell_angle_gamma   90.00000000
_symmetry_Int_Tables_number   1
_chemical_formula_structural   CsGeBr3
_chemical_formula_sum   'Cs32 Ge32 Br96'
_cell_volume   5632.61458519
_cell_formula_units_Z   32
loop_
 _symmetry_equiv_pos_site_id
 _symmetry_equiv_pos_as_xyz
  1  'x, y, z'
loop_
 _atom_site_type_symbol
 _atom_site_label
 _atom_site_symmetry_multiplicity
 _atom_site_fract_x
 _atom_site_fract_y
 _atom_site_fract_z
 _atom_site_occupancy
  Br  Br0  1  -0.00108612  0.25339263  0.00405669  1
  Br  Br1  1  0.99904776  0.25082175  0.25413101  1
  Br  Br2  1  0.99877940  0.24819965  0.50392931  1
  Br  Br3  1  0.00196995  0.24815571  0.75396350  1
  Br  Br4  1  0.49774628  0.25234874  0.99532112  1
  Br  Br5  1  0.50227321  0.25247972  0.24527480  1
  Br  Br6  1  0.50112842  0.24822080  0.49525071  1
  Br  Br7  1  0.49831367  0.25217561  0.74523834  1
  Br  Br8  1  0.25152135  0.50171687  0.99470368  1
  Br  Br9  1  0.24766049  0.50236587  0.24467556  1
  Br  Br10  1  0.25024092  0.49701663  0.49462833  1
  Br  Br11  1  0.24789855  0.50168104  0.74475323  1
  Br  Br12  1  0.99691112  0.75287525  0.00413276  1
  Br  Br13  1  0.00135761  0.75157363  0.25398042  1
  Br  Br14  1  0.00036397  0.75381001  0.50390422  1
  Br  Br15  1  -0.00183861  0.74695274  0.75407242  1
  Br  Br16  1  0.74832218  0.50566946  0.00337894  1
  Br  Br17  1  0.75049544  0.49992517  0.25384719  1
  Br  Br18  1  0.75165856  0.50164476  0.50383486  1
  Br  Br19  1  0.75041507  0.49613587  0.75363825  1
  Br  Br20  1  0.49818718  0.75331368  0.00402862  1
  Br  Br21  1  0.49984561  0.75048626  0.25422074  1
  Br  Br22  1  0.49864591  0.74805671  0.50402060  1
  Br  Br23  1  0.50207550  0.74835607  0.75396566  1
  Br  Br24  1  0.24780673  0.00319170  0.00439856  1
  Br  Br25  1  0.25081585  0.00064898  0.25435389  1
  Br  Br26  1  0.25185051  0.00168233  0.50405405  1
  Br  Br27  1  0.25002182  0.99586617  0.75409000  1
  Br  Br28  1  0.75091367  0.00163803  0.99566674  1
  Br  Br29  1  0.74729809  0.00256235  0.24572900  1
  Br  Br30  1  0.75072460  0.99838366  0.49555752  1
  Br  Br31  1  0.74761542  0.00211153  0.74548432  1
  Br  Br32  1  0.13074991  0.12346422  0.12627739  1
  Br  Br33  1  0.12796712  0.12005188  0.37497520  1
  Br  Br34  1  0.12867435  0.11982948  0.62563271  1
  Br  Br35  1  0.12241715  0.13169676  0.87582213  1
  Br  Br36  1  0.62305083  0.13276717  0.12325739  1
  Br  Br37  1  0.61846351  0.12798005  0.37410865  1
  Br  Br38  1  0.62742455  0.11915288  0.62349015  1
  Br  Br39  1  0.62128195  0.13206864  0.87478434  1
  Br  Br40  1  0.37124116  0.38103920  0.12472168  1
  Br  Br41  1  0.37263172  0.38208851  0.37271064  1
  Br  Br42  1  0.37745238  0.36900740  0.62339349  1
  Br  Br43  1  0.36878400  0.37960310  0.87215427  1
  Br  Br44  1  0.12207738  0.63167316  0.12074508  1
  Br  Br45  1  0.11844797  0.62827518  0.37412623  1
  Br  Br46  1  0.13002999  0.62159230  0.62428651  1
  Br  Br47  1  0.12199124  0.63184978  0.87418953  1
  Br  Br48  1  0.87946949  0.37246807  0.12508098  1
  Br  Br49  1  0.88068961  0.37285244  0.37594376  1
  Br  Br50  1  0.87909630  0.37031580  0.62516962  1
  Br  Br51  1  0.86845703  0.37779282  0.87616833  1
  Br  Br52  1  0.63094321  0.62409634  0.12606272  1
  Br  Br53  1  0.62766735  0.61959645  0.37468646  1
  Br  Br54  1  0.62883466  0.61976876  0.62547235  1
  Br  Br55  1  0.62203989  0.63158136  0.87579923  1
  Br  Br56  1  0.37967825  0.87247366  0.12565938  1
  Br  Br57  1  0.38068455  0.87253626  0.37564623  1
  Br  Br58  1  0.37948492  0.87031160  0.62543989  1
  Br  Br59  1  0.36878531  0.87830736  0.87600493  1
  Br  Br60  1  0.87088606  0.88087920  0.12895069  1
  Br  Br61  1  0.87247842  0.88244927  0.37505817  1
  Br  Br62  1  0.87815101  0.86991291  0.62470367  1
  Br  Br63  1  0.86797717  0.87839779  0.87555111  1
  Br  Br64  1  0.87668670  0.13176853  0.12288666  1
  Br  Br65  1  0.86891185  0.12224407  0.37624148  1
  Br  Br66  1  0.86959147  0.12140091  0.62647274  1
  Br  Br67  1  0.88069610  0.12793383  0.87313233  1
  Br  Br68  1  0.38257445  0.12620953  0.12773786  1
  Br  Br69  1  0.37871529  0.13077143  0.37538200  1
  Br  Br70  1  0.37049688  0.12023718  0.62486335  1
  Br  Br71  1  0.37931736  0.12900474  0.87569237  1
  Br  Br72  1  0.13118606  0.37718532  0.12603511  1
  Br  Br73  1  0.11942559  0.37191388  0.37304549  1
  Br  Br74  1  0.12035351  0.37085784  0.62213082  1
  Br  Br75  1  0.12703391  0.38156131  0.87664643  1
  Br  Br76  1  0.88192907  0.62675387  0.12595948  1
  Br  Br77  1  0.87866123  0.63152129  0.37508166  1
  Br  Br78  1  0.87073180  0.62053943  0.62544905  1
  Br  Br79  1  0.88018009  0.62766744  0.87567650  1
  Br  Br80  1  0.62474526  0.38408743  0.12078556  1
  Br  Br81  1  0.62879103  0.38055268  0.37385076  1
  Br  Br82  1  0.61972688  0.37074492  0.62511533  1
  Br  Br83  1  0.62655818  0.38162682  0.87372601  1
  Br  Br84  1  0.37661444  0.63178825  0.12298939  1
  Br  Br85  1  0.36893279  0.62190911  0.37603397  1
  Br  Br86  1  0.37170024  0.61946252  0.62600893  1
  Br  Br87  1  0.37988930  0.62877384  0.87237105  1
  Br  Br88  1  0.12576299  0.88273360  0.12526993  1
  Br  Br89  1  0.12854661  0.88103027  0.37572333  1
  Br  Br90  1  0.11976739  0.87138143  0.62592547  1
  Br  Br91  1  0.12664309  0.88115926  0.87579890  1
  Br  Br92  1  0.63088299  0.87764951  0.12649195  1
  Br  Br93  1  0.61988536  0.87132395  0.37386129  1
  Br  Br94  1  0.62169133  0.86948439  0.62255300  1
  Br  Br95  1  0.62664069  0.88181695  0.87688800  1
  Cs  Cs96  1  0.99897725  0.00058795  -0.00006069  1
  Cs  Cs97  1  -0.00106635  0.00166921  0.25018207  1
  Cs  Cs98  1  -0.00017826  0.00072379  0.50002913  1
  Cs  Cs99  1  0.99950843  -0.00041011  0.74987527  1
  Cs  Cs100  1  0.49954844  0.00021767  0.00031659  1
  Cs  Cs101  1  0.49992136  -0.00001061  0.25012077  1
  Cs  Cs102  1  0.50010345  0.00027692  0.49975321  1
  Cs  Cs103  1  0.49967352  0.00014667  0.74994303  1
  Cs  Cs104  1  0.24962375  0.25012134  0.00011441  1
  Cs  Cs105  1  0.25017183  0.25032115  0.25014242  1
  Cs  Cs106  1  0.24988779  0.25018755  0.49938408  1
  Cs  Cs107  1  0.24962713  0.24999389  0.74967994  1
  Cs  Cs108  1  -0.00042911  0.50004677  0.99986496  1
  Cs  Cs109  1  0.99980548  0.50012166  0.24961558  1
  Cs  Cs110  1  0.00021521  0.50121031  0.49943105  1
  Cs  Cs111  1  -0.00019312  0.49956312  0.74973946  1
  Cs  Cs112  1  0.74883740  0.25098634  0.99923981  1
  Cs  Cs113  1  0.74959011  0.25067150  0.24979658  1
  Cs  Cs114  1  0.74968491  0.25047600  0.49993909  1
  Cs  Cs115  1  0.74955867  0.24986679  0.74983798  1
  Cs  Cs116  1  0.49843198  0.50141745  -0.00133618  1
  Cs  Cs117  1  0.49921718  0.50125657  0.24918853  1
  Cs  Cs118  1  0.49987202  0.49983158  0.49988002  1
  Cs  Cs119  1  0.49974193  0.49987369  0.74955879  1
  Cs  Cs120  1  0.24895902  0.75099278  0.99910980  1
  Cs  Cs121  1  0.24959560  0.75052772  0.24972265  1
  Cs  Cs122  1  0.24983745  0.75050628  0.49987145  1
  Cs  Cs123  1  0.24975811  0.74973746  0.74962770  1
  Cs  Cs124  1  0.74955459  0.75040035  0.00015692  1
  Cs  Cs125  1  0.75010552  0.75022965  0.25018202  1
  Cs  Cs126  1  0.74991386  0.75047282  0.49933687  1
  Cs  Cs127  1  0.74982431  0.74984269  0.74983957  1
  Ge  Ge128  1  0.98842927  0.25039129  0.11941413  1
  Ge  Ge129  1  -0.00053751  0.26085339  0.36957995  1
  Ge  Ge130  1  0.00002473  0.26062194  0.61916406  1
  Ge  Ge131  1  -0.00016524  0.23958136  0.86941979  1
  Ge  Ge132  1  0.49950104  0.23944992  0.12980761  1
  Ge  Ge133  1  0.49989588  0.24033539  0.37954852  1
  Ge  Ge134  1  0.49929923  0.26000972  0.62967554  1
  Ge  Ge135  1  0.49891517  0.24037610  0.87991060  1
  Ge  Ge136  1  0.24913884  0.48946826  0.12888754  1
  Ge  Ge137  1  0.25974684  0.50013035  0.37884761  1
  Ge  Ge138  1  0.25022994  0.51060937  0.62901213  1
  Ge  Ge139  1  0.24914124  0.49021584  0.87900220  1
  Ge  Ge140  1  -0.00076465  0.73931911  0.11940293  1
  Ge  Ge141  1  0.00006429  0.74103192  0.36925712  1
  Ge  Ge142  1  -0.00038097  0.76064987  0.61937586  1
  Ge  Ge143  1  -0.00073693  0.73923688  0.86962868  1
  Ge  Ge144  1  0.73816110  0.50075454  0.11864037  1
  Ge  Ge145  1  0.73969005  0.50064978  0.36904627  1
  Ge  Ge146  1  0.75001899  0.51039824  0.61916785  1
  Ge  Ge147  1  0.74920629  0.48947183  0.86897180  1
  Ge  Ge148  1  0.48850141  0.75030047  0.11936904  1
  Ge  Ge149  1  0.49968855  0.76054728  0.36963949  1
  Ge  Ge150  1  0.50029105  0.76027794  0.61927058  1
  Ge  Ge151  1  0.49971683  0.73978619  0.86934067  1
  Ge  Ge152  1  0.23822766  0.00011519  0.11979832  1
  Ge  Ge153  1  0.23963900  0.00072574  0.36951744  1
  Ge  Ge154  1  0.24967075  0.01017325  0.61927139  1
  Ge  Ge155  1  0.24890689  0.98928602  0.86947855  1
  Ge  Ge156  1  0.74903340  0.98967925  0.13030380  1
  Ge  Ge157  1  0.75954554  0.00053324  0.37995912  1
  Ge  Ge158  1  0.74964975  0.01076578  0.62974235  1
  Ge  Ge159  1  0.74899063  0.99012486  0.88020764  1
