# generated using pymatgen
data_CsGeF3
_symmetry_space_group_name_H-M   'P 1'
_cell_length_a   12.87862773
_cell_length_b   12.87862773
_cell_length_c   18.21312900
_cell_angle_alpha   90.00000000
_cell_angle_beta   90.00000000
_cell_angle_gamma   90.00000000
_symmetry_Int_Tables_number   1
_chemical_formula_structural   CsGeF3
_chemical_formula_sum   'Cs32 Ge32 F96'
_cell_volume   3020.81231351
_cell_formula_units_Z   32
loop_
 _symmetry_equiv_pos_site_id
 _symmetry_equiv_pos_as_xyz
  1  'x, y, z'
loop_
 _atom_site_type_symbol
 _atom_site_label
 _atom_site_symmetry_multiplicity
 _atom_site_fract_x
 _atom_site_fract_y
 _atom_site_fract_z
 _atom_site_occupancy
  Cs  Cs0  1  0.00204091  0.00054295  0.00477289  1
  Cs  Cs1  1  0.99753637  0.00589009  0.25236542  1
  Cs  Cs2  1  0.00294750  0.00679055  0.50222287  1
  Cs  Cs3  1  0.00789406  0.00535155  0.75417516  1
  Cs  Cs4  1  0.50763004  0.00076153  0.00519113  1
  Cs  Cs5  1  0.49885293  0.00144326  0.25369791  1
  Cs  Cs6  1  0.50567509  0.99847510  0.50198489  1
  Cs  Cs7  1  0.50995542  0.00294289  0.75257309  1
  Cs  Cs8  1  0.25570885  0.24654307  0.00279776  1
  Cs  Cs9  1  0.25418349  0.25786707  0.24981605  1
  Cs  Cs10  1  0.25257720  0.24939886  0.50106997  1
  Cs  Cs11  1  0.25554985  0.25216268  0.75442311  1
  Cs  Cs12  1  0.00510454  0.49996807  0.99385199  1
  Cs  Cs13  1  0.00038570  0.50463489  0.24106129  1
  Cs  Cs14  1  0.00617393  0.50574893  0.49042778  1
  Cs  Cs15  1  0.01045622  0.50010313  0.74155890  1
  Cs  Cs16  1  0.75542669  0.25062798  0.99517420  1
  Cs  Cs17  1  0.75357226  0.25547781  0.24818843  1
  Cs  Cs18  1  0.74891990  0.25961636  0.49673756  1
  Cs  Cs19  1  0.75051316  0.26008153  0.74636717  1
  Cs  Cs20  1  0.50621884  0.49949427  0.99548263  1
  Cs  Cs21  1  0.50072653  0.50234038  0.24701519  1
  Cs  Cs22  1  0.49729272  0.50267959  0.49887882  1
  Cs  Cs23  1  0.50460187  0.50722149  0.74531450  1
  Cs  Cs24  1  0.25384370  0.75020647  0.99979382  1
  Cs  Cs25  1  0.24649358  0.75491249  0.24913328  1
  Cs  Cs26  1  0.25171861  0.75411742  0.50204758  1
  Cs  Cs27  1  0.25656165  0.75815267  0.75448519  1
  Cs  Cs28  1  0.75553386  0.75064840  0.99248706  1
  Cs  Cs29  1  0.74387426  0.75179612  0.24429307  1
  Cs  Cs30  1  0.75593060  0.75519803  0.49575079  1
  Cs  Cs31  1  0.76202968  0.75519965  0.74648265  1
  F  F32  1  0.00900051  0.26155530  0.97295421  1
  F  F33  1  0.01244893  0.24580707  0.22309229  1
  F  F34  1  0.00160663  0.27212624  0.47192971  1
  F  F35  1  0.00000355  0.24320821  0.72320991  1
  F  F36  1  0.50033411  0.25987095  0.97474166  1
  F  F37  1  0.51167462  0.24640851  0.22523661  1
  F  F38  1  0.49685587  0.25386184  0.47520842  1
  F  F39  1  0.50749849  0.24570899  0.72503708  1
  F  F40  1  0.25757996  0.47997691  0.02205076  1
  F  F41  1  0.24770545  0.51498071  0.27372345  1
  F  F42  1  0.25397493  0.49370965  0.52534481  1
  F  F43  1  0.26138413  0.51879964  0.77442687  1
  F  F44  1  0.01345944  0.73988407  0.01927172  1
  F  F45  1  0.98010669  0.76879877  0.26895966  1
  F  F46  1  0.00813061  0.76069091  0.52018194  1
  F  F47  1  0.00495714  0.75891726  0.76957150  1
  F  F48  1  0.75673192  0.50669895  0.96606707  1
  F  F49  1  0.75947476  0.49825261  0.21701049  1
  F  F50  1  0.74307832  0.51814126  0.46960116  1
  F  F51  1  0.76343567  0.50630343  0.71790554  1
  F  F52  1  0.49126553  0.73552710  0.02107926  1
  F  F53  1  0.48404767  0.75683725  0.27333288  1
  F  F54  1  0.50984147  0.73908901  0.52318648  1
  F  F55  1  0.52431310  0.76952005  0.77246694  1
  F  F56  1  0.25582979  0.99848931  0.02995120  1
  F  F57  1  0.24182586  0.02189565  0.27855044  1
  F  F58  1  0.26203056  0.99102415  0.52959455  1
  F  F59  1  0.25916809  0.01187696  0.78121879  1
  F  F60  1  0.75389361  0.99060660  0.02749353  1
  F  F61  1  0.74490969  0.02242934  0.27604303  1
  F  F62  1  0.75625285  0.00144559  0.52524458  1
  F  F63  1  0.76125873  0.02245052  0.77462535  1
  F  F64  1  0.14766073  0.10287209  0.13372810  1
  F  F65  1  0.10456254  0.15529384  0.37228823  1
  F  F66  1  0.16163320  0.10411318  0.63396222  1
  F  F67  1  0.14970969  0.09598640  0.89353553  1
  F  F68  1  0.64704870  0.09858234  0.13091302  1
  F  F69  1  0.60282063  0.15202208  0.36851615  1
  F  F70  1  0.60449108  0.15720375  0.60855411  1
  F  F71  1  0.60163832  0.15099469  0.86980531  1
  F  F72  1  0.40337186  0.35358684  0.12187966  1
  F  F73  1  0.34847546  0.40154181  0.37819470  1
  F  F74  1  0.35463902  0.40528431  0.64020677  1
  F  F75  1  0.36167020  0.40822164  0.87910036  1
  F  F76  1  0.14931977  0.59945591  0.11820634  1
  F  F77  1  0.09886773  0.65261406  0.36266155  1
  F  F78  1  0.11097281  0.66156177  0.62800752  1
  F  F79  1  0.10168947  0.64655031  0.87271460  1
  F  F80  1  0.89783452  0.35007204  0.12275310  1
  F  F81  1  0.85296599  0.40439916  0.37230754  1
  F  F82  1  0.91081719  0.35626093  0.61710053  1
  F  F83  1  0.91438820  0.35980356  0.86241955  1
  F  F84  1  0.64838853  0.60123489  0.11341408  1
  F  F85  1  0.59655083  0.64656020  0.37313782  1
  F  F86  1  0.65995463  0.60727343  0.61144743  1
  F  F87  1  0.65634120  0.60241714  0.85422261  1
  F  F88  1  0.39769546  0.85124002  0.12440469  1
  F  F89  1  0.34347834  0.89616767  0.37234242  1
  F  F90  1  0.41214017  0.85421939  0.62568571  1
  F  F91  1  0.41493889  0.85952977  0.88036285  1
  F  F92  1  0.89480786  0.84664401  0.11600437  1
  F  F93  1  0.84955986  0.90114942  0.37192550  1
  F  F94  1  0.86199818  0.91491596  0.63512045  1
  F  F95  1  0.86296762  0.91149539  0.87709846  1
  F  F96  1  0.85613750  0.10171367  0.13124052  1
  F  F97  1  0.85431570  0.10897679  0.38902342  1
  F  F98  1  0.84014828  0.12447715  0.62919658  1
  F  F99  1  0.91047361  0.15002483  0.86906159  1
  F  F100  1  0.35742651  0.10359331  0.13815630  1
  F  F101  1  0.35962087  0.10325345  0.38806805  1
  F  F102  1  0.37104943  0.09061371  0.63488119  1
  F  F103  1  0.36180560  0.09647002  0.89577796  1
  F  F104  1  0.10720733  0.35319081  0.11457053  1
  F  F105  1  0.09998593  0.36420693  0.35697413  1
  F  F106  1  0.11979809  0.33881564  0.62115572  1
  F  F107  1  0.15159822  0.41110255  0.87600974  1
  F  F108  1  0.85868214  0.60426750  0.10888931  1
  F  F109  1  0.85075798  0.61351037  0.35949514  1
  F  F110  1  0.86983731  0.59263866  0.60518554  1
  F  F111  1  0.86665587  0.59266699  0.85454479  1
  F  F112  1  0.61328119  0.34891377  0.11894983  1
  F  F113  1  0.59997806  0.36176898  0.37261207  1
  F  F114  1  0.59106376  0.36698629  0.62047458  1
  F  F115  1  0.59324437  0.36191501  0.86508921  1
  F  F116  1  0.35823580  0.60109305  0.12143782  1
  F  F117  1  0.35174473  0.61201336  0.38131516  1
  F  F118  1  0.34241707  0.61626129  0.62720267  1
  F  F119  1  0.41552252  0.64949193  0.86737292  1
  F  F120  1  0.10429994  0.85556214  0.12477967  1
  F  F121  1  0.10052367  0.86302141  0.37014047  1
  F  F122  1  0.09250943  0.87012140  0.63013667  1
  F  F123  1  0.09883449  0.85723946  0.88100713  1
  F  F124  1  0.60766958  0.84953326  0.11641684  1
  F  F125  1  0.60626009  0.85613120  0.37120611  1
  F  F126  1  0.62273303  0.84023508  0.62391497  1
  F  F127  1  0.65214872  0.91210654  0.87526561  1
  Ge  Ge128  1  0.00434925  0.24391776  0.11750951  1
  Ge  Ge129  1  0.99489900  0.25737350  0.36641316  1
  Ge  Ge130  1  0.00582350  0.24134770  0.61764275  1
  Ge  Ge131  1  0.01874829  0.25321801  0.86765172  1
  Ge  Ge132  1  0.50602178  0.24358968  0.11943479  1
  Ge  Ge133  1  0.49401053  0.25477108  0.36940788  1
  Ge  Ge134  1  0.49151824  0.25438677  0.61980974  1
  Ge  Ge135  1  0.49095623  0.25283574  0.86913247  1
  Ge  Ge136  1  0.25413712  0.49254689  0.12709045  1
  Ge  Ge137  1  0.24284358  0.50813687  0.37911564  1
  Ge  Ge138  1  0.24315301  0.50413013  0.63102488  1
  Ge  Ge139  1  0.25803903  0.51618136  0.88060930  1
  Ge  Ge140  1  0.00296910  0.74395393  0.12514043  1
  Ge  Ge141  1  0.99213367  0.75814391  0.37412616  1
  Ge  Ge142  1  0.99556484  0.75658912  0.62609061  1
  Ge  Ge143  1  0.99444131  0.75056794  0.87553015  1
  Ge  Ge144  1  0.75502254  0.49502308  0.11109019  1
  Ge  Ge145  1  0.74411508  0.50754433  0.36409990  1
  Ge  Ge146  1  0.75759819  0.49443654  0.61209660  1
  Ge  Ge147  1  0.75684039  0.49179554  0.86026732  1
  Ge  Ge148  1  0.50150184  0.74291243  0.12629431  1
  Ge  Ge149  1  0.49373963  0.75569555  0.37916345  1
  Ge  Ge150  1  0.51079665  0.74111022  0.62891257  1
  Ge  Ge151  1  0.52143957  0.75449047  0.87781952  1
  Ge  Ge152  1  0.25252225  0.99572394  0.13599867  1
  Ge  Ge153  1  0.24374077  0.00684426  0.38346154  1
  Ge  Ge154  1  0.25955651  0.99069849  0.63553341  1
  Ge  Ge155  1  0.25652150  0.99115029  0.88671122  1
  Ge  Ge156  1  0.75284121  0.99231247  0.13336554  1
  Ge  Ge157  1  0.74380678  0.00745656  0.38143674  1
  Ge  Ge158  1  0.74547865  0.00875073  0.63066342  1
  Ge  Ge159  1  0.75781578  0.01815007  0.88011140  1
