# generated using pymatgen
data_CsHgCl3
_symmetry_space_group_name_H-M   'P 1'
_cell_length_a   15.27359698
_cell_length_b   15.27359698
_cell_length_c   21.60012800
_cell_angle_alpha   90.00000000
_cell_angle_beta   90.00000000
_cell_angle_gamma   90.00000000
_symmetry_Int_Tables_number   1
_chemical_formula_structural   CsHgCl3
_chemical_formula_sum   'Cs32 Hg32 Cl96'
_cell_volume   5038.93758005
_cell_formula_units_Z   32
loop_
 _symmetry_equiv_pos_site_id
 _symmetry_equiv_pos_as_xyz
  1  'x, y, z'
loop_
 _atom_site_type_symbol
 _atom_site_label
 _atom_site_symmetry_multiplicity
 _atom_site_fract_x
 _atom_site_fract_y
 _atom_site_fract_z
 _atom_site_occupancy
  Cl  Cl0  1  -0.00061520  0.25176073  0.00910182  1
  Cl  Cl1  1  0.98907847  0.25381971  0.23941871  1
  Cl  Cl2  1  0.02965743  0.22677037  0.51234313  1
  Cl  Cl3  1  0.98121298  0.28251336  0.73803285  1
  Cl  Cl4  1  0.50261179  0.24823803  0.00990687  1
  Cl  Cl5  1  0.47159123  0.26572758  0.24348828  1
  Cl  Cl6  1  0.50524073  0.22595236  0.51430705  1
  Cl  Cl7  1  0.50557291  0.26783214  0.73950941  1
  Cl  Cl8  1  0.22074644  0.50635280  0.98812556  1
  Cl  Cl9  1  0.27423342  0.47930982  0.25541892  1
  Cl  Cl10  1  0.25295228  0.50670224  0.49045878  1
  Cl  Cl11  1  0.24983665  0.48727116  0.75889529  1
  Cl  Cl12  1  0.99477963  0.73470723  0.99100988  1
  Cl  Cl13  1  0.01772437  0.77028512  0.25672569  1
  Cl  Cl14  1  0.02448090  0.74871510  0.49067422  1
  Cl  Cl15  1  0.97363685  0.77291480  0.75569519  1
  Cl  Cl16  1  0.73487557  0.52120639  0.00231553  1
  Cl  Cl17  1  0.78001351  0.47629052  0.26073275  1
  Cl  Cl18  1  0.74580771  0.51348568  0.48467556  1
  Cl  Cl19  1  0.75137846  0.48252781  0.74530895  1
  Cl  Cl20  1  0.52210929  0.72516614  0.99519527  1
  Cl  Cl21  1  0.49166548  0.77624215  0.25856697  1
  Cl  Cl22  1  0.52157950  0.74108129  0.48850335  1
  Cl  Cl23  1  0.49001860  0.74714833  0.75833271  1
  Cl  Cl24  1  0.24162744  0.02278901  0.98935131  1
  Cl  Cl25  1  0.24349371  0.98875861  0.24875350  1
  Cl  Cl26  1  0.24978869  0.02427717  0.50583856  1
  Cl  Cl27  1  0.26996852  0.98276167  0.76459774  1
  Cl  Cl28  1  0.72666525  0.00445911  0.01076805  1
  Cl  Cl29  1  0.74841193  0.99210608  0.24022780  1
  Cl  Cl30  1  0.75382045  0.00700465  0.50962601  1
  Cl  Cl31  1  0.77366202  0.96956208  0.74417959  1
  Cl  Cl32  1  0.12476555  0.10682245  0.12320324  1
  Cl  Cl33  1  0.08638818  0.11846245  0.36498082  1
  Cl  Cl34  1  0.13352941  0.13795234  0.65379674  1
  Cl  Cl35  1  0.14024846  0.14175010  0.86062330  1
  Cl  Cl36  1  0.61582641  0.12151880  0.13755847  1
  Cl  Cl37  1  0.58447955  0.11699381  0.37169429  1
  Cl  Cl38  1  0.62550711  0.11814144  0.64361184  1
  Cl  Cl39  1  0.64795867  0.11051376  0.86562177  1
  Cl  Cl40  1  0.36029668  0.39080742  0.10643016  1
  Cl  Cl41  1  0.39580541  0.36634645  0.39111713  1
  Cl  Cl42  1  0.38157965  0.37818033  0.61767708  1
  Cl  Cl43  1  0.36123274  0.36531079  0.88392229  1
  Cl  Cl44  1  0.16616968  0.63199672  0.13323858  1
  Cl  Cl45  1  0.13680380  0.63082045  0.36438224  1
  Cl  Cl46  1  0.10107575  0.63716274  0.63529527  1
  Cl  Cl47  1  0.12000300  0.62552609  0.85720774  1
  Cl  Cl48  1  0.85523293  0.38582434  0.11812143  1
  Cl  Cl49  1  0.89778298  0.36226776  0.39102812  1
  Cl  Cl50  1  0.88898028  0.38049290  0.59474263  1
  Cl  Cl51  1  0.84819756  0.37940640  0.88563470  1
  Cl  Cl52  1  0.66307705  0.63527134  0.15116754  1
  Cl  Cl53  1  0.63580902  0.63858779  0.35360166  1
  Cl  Cl54  1  0.59319701  0.61732937  0.62876490  1
  Cl  Cl55  1  0.61818466  0.59719787  0.86211418  1
  Cl  Cl56  1  0.34969165  0.87620551  0.10914892  1
  Cl  Cl57  1  0.39300691  0.88960186  0.39002396  1
  Cl  Cl58  1  0.39288658  0.85701152  0.61824654  1
  Cl  Cl59  1  0.37875253  0.87591111  0.89579895  1
  Cl  Cl60  1  0.86271852  0.86510987  0.11909733  1
  Cl  Cl61  1  0.89385656  0.88934576  0.37840515  1
  Cl  Cl62  1  0.89636336  0.86747781  0.60838794  1
  Cl  Cl63  1  0.87380288  0.89892877  0.89301725  1
  Cl  Cl64  1  0.87335445  0.12813879  0.12097224  1
  Cl  Cl65  1  0.83594708  0.13524202  0.37040957  1
  Cl  Cl66  1  0.87930427  0.11563928  0.63124048  1
  Cl  Cl67  1  0.88950870  0.14161416  0.87335441  1
  Cl  Cl68  1  0.36396076  0.13569931  0.12106056  1
  Cl  Cl69  1  0.33624132  0.14043705  0.36787914  1
  Cl  Cl70  1  0.38082378  0.09941946  0.64326877  1
  Cl  Cl71  1  0.40553932  0.12092806  0.86797109  1
  Cl  Cl72  1  0.11432384  0.38429555  0.12677474  1
  Cl  Cl73  1  0.14303463  0.36461003  0.37395965  1
  Cl  Cl74  1  0.13044751  0.39788604  0.62217703  1
  Cl  Cl75  1  0.09062240  0.38177338  0.87435273  1
  Cl  Cl76  1  0.91508018  0.61757926  0.13574996  1
  Cl  Cl77  1  0.88831648  0.62450206  0.37162921  1
  Cl  Cl78  1  0.84598437  0.62730581  0.61777220  1
  Cl  Cl79  1  0.86299397  0.63630350  0.86937926  1
  Cl  Cl80  1  0.60989512  0.38579410  0.12998514  1
  Cl  Cl81  1  0.64042372  0.36053892  0.37402843  1
  Cl  Cl82  1  0.63764710  0.38545253  0.60905021  1
  Cl  Cl83  1  0.61360963  0.35087066  0.87703109  1
  Cl  Cl84  1  0.41142106  0.62407703  0.13067852  1
  Cl  Cl85  1  0.38424158  0.61677919  0.37316666  1
  Cl  Cl86  1  0.34269081  0.62613476  0.62879869  1
  Cl  Cl87  1  0.37631359  0.62397283  0.87894913  1
  Cl  Cl88  1  0.10972422  0.86226691  0.11287605  1
  Cl  Cl89  1  0.14614162  0.88640424  0.38416219  1
  Cl  Cl90  1  0.14992564  0.88119632  0.63326081  1
  Cl  Cl91  1  0.11180031  0.87785171  0.87999611  1
  Cl  Cl92  1  0.59687849  0.87374454  0.12407120  1
  Cl  Cl93  1  0.64537958  0.88820270  0.37664777  1
  Cl  Cl94  1  0.64522852  0.85952924  0.62156754  1
  Cl  Cl95  1  0.63422401  0.85530702  0.87167522  1
  Cs  Cs96  1  -0.00088650  0.00615704  0.00327219  1
  Cs  Cs97  1  0.99307660  0.99952070  0.24127777  1
  Cs  Cs98  1  0.01196373  0.99599324  0.50123556  1
  Cs  Cs99  1  0.00701951  0.00409904  0.75428716  1
  Cs  Cs100  1  0.49121689  0.00592128  0.00563359  1
  Cs  Cs101  1  0.48303806  0.00689303  0.24824531  1
  Cs  Cs102  1  0.51124189  0.99184953  0.50989062  1
  Cs  Cs103  1  0.51173565  0.98124165  0.75403325  1
  Cs  Cs104  1  0.23801880  0.25650462  -0.00014127  1
  Cs  Cs105  1  0.23593677  0.24684310  0.24168990  1
  Cs  Cs106  1  0.25811004  0.25754980  0.50450346  1
  Cs  Cs107  1  0.26562522  0.25519282  0.75168760  1
  Cs  Cs108  1  0.98340913  0.49990972  0.99682158  1
  Cs  Cs109  1  0.01581593  0.49644322  0.25775503  1
  Cs  Cs110  1  0.01217953  0.51104509  0.49228461  1
  Cs  Cs111  1  0.98690140  0.51097804  0.74957908  1
  Cs  Cs112  1  0.74298941  0.24816307  0.00524462  1
  Cs  Cs113  1  0.74235125  0.24846035  0.24281845  1
  Cs  Cs114  1  0.74996855  0.24719123  0.50258445  1
  Cs  Cs115  1  0.75033004  0.24882408  0.74840270  1
  Cs  Cs116  1  0.49980485  0.49371611  0.99368765  1
  Cs  Cs117  1  0.50980798  0.49954503  0.25628381  1
  Cs  Cs118  1  0.50619325  0.50257538  0.49593552  1
  Cs  Cs119  1  0.48771480  0.49915622  0.74940850  1
  Cs  Cs120  1  0.23908525  0.74644139  0.99117024  1
  Cs  Cs121  1  0.25839683  0.75646853  0.25643602  1
  Cs  Cs122  1  0.26171043  0.75117704  0.49425059  1
  Cs  Cs123  1  0.25141319  0.75053720  0.75722556  1
  Cs  Cs124  1  0.75207629  0.75252064  0.99832481  1
  Cs  Cs125  1  0.77550596  0.76062317  0.25790063  1
  Cs  Cs126  1  0.76033986  0.75299786  0.48971797  1
  Cs  Cs127  1  0.73794677  0.73500514  0.74797837  1
  Hg  Hg128  1  0.99658623  0.25469095  0.12441900  1
  Hg  Hg129  1  0.00390285  0.24911701  0.37986304  1
  Hg  Hg130  1  0.99700379  0.24595737  0.62528439  1
  Hg  Hg131  1  0.00264737  0.25125770  0.86905502  1
  Hg  Hg132  1  0.49973226  0.24954077  0.12819481  1
  Hg  Hg133  1  0.50162657  0.25113585  0.37440335  1
  Hg  Hg134  1  0.50224191  0.24708553  0.62667789  1
  Hg  Hg135  1  0.49540013  0.24808694  0.87797568  1
  Hg  Hg136  1  0.25038954  0.50042503  0.12396633  1
  Hg  Hg137  1  0.25232444  0.50058453  0.37154561  1
  Hg  Hg138  1  0.25168225  0.49793127  0.62246999  1
  Hg  Hg139  1  0.24822517  0.50225624  0.87430222  1
  Hg  Hg140  1  0.99912887  0.74976963  0.12274360  1
  Hg  Hg141  1  0.00573413  0.75249064  0.37361496  1
  Hg  Hg142  1  0.99897464  0.75341747  0.62561993  1
  Hg  Hg143  1  0.99783066  0.74665613  0.87194068  1
  Hg  Hg144  1  0.74504907  0.50307742  0.12523782  1
  Hg  Hg145  1  0.74891704  0.50518731  0.37079435  1
  Hg  Hg146  1  0.75949628  0.49062983  0.62271560  1
  Hg  Hg147  1  0.74642573  0.50224348  0.87466880  1
  Hg  Hg148  1  0.50540303  0.74773151  0.12446771  1
  Hg  Hg149  1  0.50005838  0.74986799  0.37308095  1
  Hg  Hg150  1  0.50484140  0.74716938  0.62516789  1
  Hg  Hg151  1  0.49630163  0.75097636  0.87872896  1
  Hg  Hg152  1  0.25031523  0.00156536  0.12671946  1
  Hg  Hg153  1  0.25695004  0.00257771  0.37823356  1
  Hg  Hg154  1  0.24678647  0.01054060  0.62760269  1
  Hg  Hg155  1  0.24520376  0.99696254  0.87666946  1
  Hg  Hg156  1  0.75041828  0.00215066  0.12492218  1
  Hg  Hg157  1  0.75334508  0.00227540  0.37727384  1
  Hg  Hg158  1  0.74913026  0.99926333  0.62866852  1
  Hg  Hg159  1  0.75032154  0.99205985  0.87367117  1
