# generated using pymatgen
data_CsHgF3
_symmetry_space_group_name_H-M   'P 1'
_cell_length_a   12.76922134
_cell_length_b   12.76922134
_cell_length_c   18.05840600
_cell_angle_alpha   90.00000000
_cell_angle_beta   90.00000000
_cell_angle_gamma   90.00000000
_symmetry_Int_Tables_number   1
_chemical_formula_structural   CsHgF3
_chemical_formula_sum   'Cs32 Hg32 F96'
_cell_volume   2944.47751966
_cell_formula_units_Z   32
loop_
 _symmetry_equiv_pos_site_id
 _symmetry_equiv_pos_as_xyz
  1  'x, y, z'
loop_
 _atom_site_type_symbol
 _atom_site_label
 _atom_site_symmetry_multiplicity
 _atom_site_fract_x
 _atom_site_fract_y
 _atom_site_fract_z
 _atom_site_occupancy
  Cs  Cs0  1  0.00269977  0.00006669  0.00010893  1
  Cs  Cs1  1  0.00003035  0.99913112  0.25006276  1
  Cs  Cs2  1  0.99853325  0.99901331  0.49972240  1
  Cs  Cs3  1  0.99369321  0.99808020  0.75002947  1
  Cs  Cs4  1  0.50265182  0.99951176  0.00011292  1
  Cs  Cs5  1  0.50023441  0.99927917  0.24973571  1
  Cs  Cs6  1  0.49842394  0.99919070  0.49984394  1
  Cs  Cs7  1  0.49359874  0.99800779  0.75007401  1
  Cs  Cs8  1  0.25474394  0.24888159  0.99975436  1
  Cs  Cs9  1  0.25228464  0.24939138  0.24898261  1
  Cs  Cs10  1  0.24878063  0.24944318  0.49977810  1
  Cs  Cs11  1  0.24525989  0.24956459  0.75034381  1
  Cs  Cs12  1  0.00425391  0.49800193  0.99989458  1
  Cs  Cs13  1  0.00200151  0.49833268  0.24892949  1
  Cs  Cs14  1  0.99856867  0.49946139  0.49985294  1
  Cs  Cs15  1  0.99507640  0.49925239  0.75054125  1
  Cs  Cs16  1  0.75402117  0.24873640  0.99974080  1
  Cs  Cs17  1  0.75210314  0.24920673  0.24872220  1
  Cs  Cs18  1  0.74917626  0.24883788  0.49964964  1
  Cs  Cs19  1  0.74515736  0.24916544  0.75036900  1
  Cs  Cs20  1  0.50365386  0.49857980  0.99967503  1
  Cs  Cs21  1  0.50227380  0.49855032  0.24894278  1
  Cs  Cs22  1  0.49856888  0.49954337  0.50024696  1
  Cs  Cs23  1  0.49448209  0.50007701  0.75084908  1
  Cs  Cs24  1  0.25261414  0.74805347  0.00018077  1
  Cs  Cs25  1  0.24999122  0.74904672  0.24987996  1
  Cs  Cs26  1  0.24788255  0.74976572  0.50007768  1
  Cs  Cs27  1  0.24368041  0.75003574  0.75033520  1
  Cs  Cs28  1  0.75241791  0.74799247  0.00027502  1
  Cs  Cs29  1  0.74992763  0.74891474  0.24998021  1
  Cs  Cs30  1  0.74825277  0.74957642  0.50003140  1
  Cs  Cs31  1  0.74358334  0.75063107  0.75009017  1
  F  F32  1  0.99833063  0.26339899  0.99964134  1
  F  F33  1  0.00398196  0.23607053  0.24964487  1
  F  F34  1  0.99960537  0.26073619  0.49984546  1
  F  F35  1  0.99633462  0.23328311  0.74995517  1
  F  F36  1  0.50006943  0.26372518  0.99949088  1
  F  F37  1  0.50354641  0.23666666  0.24971461  1
  F  F38  1  0.50110066  0.26179815  0.50007805  1
  F  F39  1  0.49434764  0.23303969  0.74992671  1
  F  F40  1  0.24807382  0.48246720  0.99983321  1
  F  F41  1  0.25595192  0.51194181  0.24972658  1
  F  F42  1  0.24524682  0.48820021  0.49995679  1
  F  F43  1  0.24811853  0.51365125  0.75005933  1
  F  F44  1  0.00717366  0.76661769  0.00011503  1
  F  F45  1  0.99623223  0.73418182  0.24980691  1
  F  F46  1  0.99980487  0.75980684  0.49984077  1
  F  F47  1  0.99316013  0.73495383  0.75027048  1
  F  F48  1  0.74641326  0.48242980  0.99963044  1
  F  F49  1  0.75568529  0.51151925  0.24972430  1
  F  F50  1  0.74467989  0.48651949  0.50023236  1
  F  F51  1  0.75068637  0.51607859  0.75018120  1
  F  F52  1  0.50668436  0.76461887  0.00022447  1
  F  F53  1  0.49641721  0.73526901  0.24998637  1
  F  F54  1  0.49938880  0.76053699  0.49996057  1
  F  F55  1  0.49330522  0.73666954  0.75024786  1
  F  F56  1  0.25599021  0.98177958  0.00000012  1
  F  F57  1  0.24835463  0.01324201  0.24984660  1
  F  F58  1  0.24744773  0.98808521  0.49990219  1
  F  F59  1  0.24405473  0.01300715  0.75014068  1
  F  F60  1  0.75622073  0.98214701  0.99999480  1
  F  F61  1  0.74783671  0.01216188  0.24983758  1
  F  F62  1  0.74743177  0.98826893  0.49985765  1
  F  F63  1  0.74420565  0.01250067  0.75006039  1
  F  F64  1  0.13411124  0.13067864  0.11397355  1
  F  F65  1  0.11360950  0.11322318  0.38040548  1
  F  F66  1  0.13358610  0.13584927  0.61977669  1
  F  F67  1  0.13116775  0.13088839  0.88591638  1
  F  F68  1  0.63376101  0.13052589  0.11480890  1
  F  F69  1  0.61354832  0.11308785  0.38031851  1
  F  F70  1  0.63355816  0.13568598  0.61983561  1
  F  F71  1  0.63101047  0.13075349  0.88515836  1
  F  F72  1  0.37150173  0.36793823  0.13127452  1
  F  F73  1  0.38705511  0.38582795  0.37028230  1
  F  F74  1  0.36114867  0.36341363  0.62935739  1
  F  F75  1  0.36865242  0.36848404  0.86733460  1
  F  F76  1  0.13341934  0.63062484  0.12008275  1
  F  F77  1  0.11349399  0.61270674  0.37864716  1
  F  F78  1  0.13303370  0.63544272  0.61979141  1
  F  F79  1  0.13040308  0.63078373  0.88145138  1
  F  F80  1  0.87149640  0.36780583  0.13102983  1
  F  F81  1  0.88679429  0.38570592  0.37004130  1
  F  F82  1  0.86121928  0.36331761  0.62999169  1
  F  F83  1  0.86836312  0.36785070  0.86717688  1
  F  F84  1  0.63362549  0.63073884  0.12064443  1
  F  F85  1  0.61327949  0.61263612  0.37913374  1
  F  F86  1  0.63291370  0.63534453  0.61933227  1
  F  F87  1  0.63040007  0.63074422  0.88115772  1
  F  F88  1  0.36883755  0.86654548  0.13241857  1
  F  F89  1  0.38578779  0.88587035  0.36987911  1
  F  F90  1  0.36016248  0.86321208  0.62992822  1
  F  F91  1  0.36585112  0.86643895  0.86757078  1
  F  F92  1  0.86882871  0.86639107  0.13285547  1
  F  F93  1  0.88582105  0.88547257  0.37021865  1
  F  F94  1  0.86054592  0.86325515  0.62946527  1
  F  F95  1  0.86573930  0.86621829  0.86710421  1
  F  F96  1  0.88352385  0.11704861  0.12018505  1
  F  F97  1  0.86379851  0.13534681  0.37939325  1
  F  F98  1  0.88303887  0.11308507  0.61844782  1
  F  F99  1  0.88072572  0.11693590  0.88114501  1
  F  F100  1  0.38357685  0.11717118  0.11976503  1
  F  F101  1  0.36381348  0.13559919  0.38027503  1
  F  F102  1  0.38268727  0.11341082  0.61840981  1
  F  F103  1  0.38071878  0.11700201  0.88170358  1
  F  F104  1  0.12140868  0.38000029  0.13144653  1
  F  F105  1  0.13674163  0.36308433  0.36838713  1
  F  F106  1  0.11074453  0.38521138  0.63120768  1
  F  F107  1  0.11822244  0.37995711  0.86641002  1
  F  F108  1  0.88360018  0.61730517  0.11299702  1
  F  F109  1  0.86286864  0.63533318  0.38144059  1
  F  F110  1  0.88282396  0.61302888  0.61887670  1
  F  F111  1  0.88085619  0.61718652  0.88738674  1
  F  F112  1  0.62124958  0.38019508  0.13078536  1
  F  F113  1  0.63692495  0.36260101  0.36819443  1
  F  F114  1  0.61126927  0.38486071  0.63457417  1
  F  F115  1  0.61822364  0.38012829  0.86437166  1
  F  F116  1  0.38361597  0.61728878  0.11388663  1
  F  F117  1  0.36287319  0.63586549  0.38156416  1
  F  F118  1  0.38298056  0.61300288  0.61957094  1
  F  F119  1  0.38030115  0.61770628  0.88568523  1
  F  F120  1  0.11875370  0.88134395  0.13347107  1
  F  F121  1  0.13509984  0.86322522  0.36905504  1
  F  F122  1  0.11008570  0.88522754  0.62991245  1
  F  F123  1  0.11568632  0.88156077  0.86696268  1
  F  F124  1  0.61872479  0.88130629  0.13262585  1
  F  F125  1  0.63532051  0.86290311  0.36933434  1
  F  F126  1  0.61035557  0.88512569  0.62992800  1
  F  F127  1  0.61558627  0.88192118  0.86769000  1
  Hg  Hg128  1  0.00261308  0.24854675  0.12459989  1
  Hg  Hg129  1  0.00014800  0.24937554  0.37472780  1
  Hg  Hg130  1  0.99693991  0.24903520  0.62500932  1
  Hg  Hg131  1  0.99946127  0.24864108  0.87474242  1
  Hg  Hg132  1  0.50246955  0.24876523  0.12458564  1
  Hg  Hg133  1  0.50015628  0.24927203  0.37487217  1
  Hg  Hg134  1  0.49705860  0.24914154  0.62505538  1
  Hg  Hg135  1  0.49947450  0.24884722  0.87465369  1
  Hg  Hg136  1  0.25242643  0.49915557  0.12472475  1
  Hg  Hg137  1  0.25021364  0.49914099  0.37481626  1
  Hg  Hg138  1  0.24669979  0.49916723  0.62508930  1
  Hg  Hg139  1  0.24911305  0.49919181  0.87503712  1
  Hg  Hg140  1  0.00134678  0.74903540  0.12478968  1
  Hg  Hg141  1  0.99943105  0.74873954  0.37472667  1
  Hg  Hg142  1  0.99646667  0.74888719  0.62516829  1
  Hg  Hg143  1  0.99823667  0.74898490  0.87543261  1
  Hg  Hg144  1  0.75255024  0.49910091  0.12460430  1
  Hg  Hg145  1  0.74983677  0.49898487  0.37499524  1
  Hg  Hg146  1  0.74666870  0.49907252  0.62530662  1
  Hg  Hg147  1  0.74934346  0.49908536  0.87491066  1
  Hg  Hg148  1  0.50132197  0.74898442  0.12500439  1
  Hg  Hg149  1  0.49934062  0.74902118  0.37491119  1
  Hg  Hg150  1  0.49643938  0.74905601  0.62512468  1
  Hg  Hg151  1  0.49844242  0.74913494  0.87544643  1
  Hg  Hg152  1  0.25137260  0.99864055  0.12478002  1
  Hg  Hg153  1  0.24952707  0.99930478  0.37480212  1
  Hg  Hg154  1  0.24649507  0.99933634  0.62512647  1
  Hg  Hg155  1  0.24837559  0.99885528  0.87525292  1
  Hg  Hg156  1  0.75142973  0.99856083  0.12473796  1
  Hg  Hg157  1  0.74952474  0.99914104  0.37480024  1
  Hg  Hg158  1  0.74666300  0.99926912  0.62505499  1
  Hg  Hg159  1  0.74854459  0.99883930  0.87522265  1
