# generated using pymatgen
data_CsHgBr3
_symmetry_space_group_name_H-M   'P 1'
_cell_length_a   16.08241683
_cell_length_b   16.08241683
_cell_length_c   22.74397200
_cell_angle_alpha   90.00000000
_cell_angle_beta   90.00000000
_cell_angle_gamma   90.00000000
_symmetry_Int_Tables_number   1
_chemical_formula_structural   CsHgBr3
_chemical_formula_sum   'Cs32 Hg32 Br96'
_cell_volume   5882.59487726
_cell_formula_units_Z   32
loop_
 _symmetry_equiv_pos_site_id
 _symmetry_equiv_pos_as_xyz
  1  'x, y, z'
loop_
 _atom_site_type_symbol
 _atom_site_label
 _atom_site_symmetry_multiplicity
 _atom_site_fract_x
 _atom_site_fract_y
 _atom_site_fract_z
 _atom_site_occupancy
  Br  Br0  1  0.98367874  0.24329996  0.00702988  1
  Br  Br1  1  0.99385742  0.27224689  0.24158373  1
  Br  Br2  1  0.99352731  0.25531464  0.51151794  1
  Br  Br3  1  0.99723303  0.26760765  0.73961637  1
  Br  Br4  1  0.48891270  0.22072421  0.98559629  1
  Br  Br5  1  0.48899125  0.25446241  0.26194162  1
  Br  Br6  1  0.49303252  0.22392729  0.49003844  1
  Br  Br7  1  0.48838627  0.30019594  0.76273577  1
  Br  Br8  1  0.24273448  0.53151720  0.01392518  1
  Br  Br9  1  0.26217269  0.47926407  0.23715598  1
  Br  Br10  1  0.25363306  0.52796375  0.50892219  1
  Br  Br11  1  0.27539196  0.49379097  0.74300953  1
  Br  Br12  1  0.98806986  0.72670339  0.01406123  1
  Br  Br13  1  0.98069964  0.78928356  0.24218440  1
  Br  Br14  1  0.99101286  0.72587125  0.51466107  1
  Br  Br15  1  0.99921094  0.77927622  0.73840509  1
  Br  Br16  1  0.76866197  0.52820062  0.99016122  1
  Br  Br17  1  0.75976847  0.47326733  0.25898316  1
  Br  Br18  1  0.76286841  0.49614481  0.48990055  1
  Br  Br19  1  0.74248126  0.49563753  0.76323021  1
  Br  Br20  1  0.49371758  0.75874955  0.99439366  1
  Br  Br21  1  0.49471911  0.74914733  0.26399628  1
  Br  Br22  1  0.48489040  0.71856247  0.49145769  1
  Br  Br23  1  0.48786467  0.76711198  0.76047576  1
  Br  Br24  1  0.26275117  0.01780140  0.01046306  1
  Br  Br25  1  0.24961699  0.00007000  0.23836993  1
  Br  Br26  1  0.27173212  0.03476509  0.50934401  1
  Br  Br27  1  0.25045069  0.97474732  0.73715677  1
  Br  Br28  1  0.74253856  0.03187357  0.98660063  1
  Br  Br29  1  0.77194779  0.96566976  0.25909953  1
  Br  Br30  1  0.75565364  0.00679379  0.48665164  1
  Br  Br31  1  0.77043541  0.98949829  0.75919923  1
  Br  Br32  1  0.13384589  0.13697714  0.12786546  1
  Br  Br33  1  0.14372543  0.18057855  0.37587823  1
  Br  Br34  1  0.13788203  0.13044437  0.63234657  1
  Br  Br35  1  0.10854462  0.07542519  0.87045506  1
  Br  Br36  1  0.61339421  0.07237352  0.13556338  1
  Br  Br37  1  0.61819754  0.11256490  0.35910103  1
  Br  Br38  1  0.60750582  0.06885737  0.62575969  1
  Br  Br39  1  0.63295377  0.13645200  0.84432731  1
  Br  Br40  1  0.39111885  0.38687117  0.10801323  1
  Br  Br41  1  0.35519701  0.36086277  0.38374487  1
  Br  Br42  1  0.39025450  0.38911754  0.61022953  1
  Br  Br43  1  0.35965818  0.39239918  0.89441385  1
  Br  Br44  1  0.13512416  0.63740685  0.15234682  1
  Br  Br45  1  0.14225826  0.68164940  0.37038700  1
  Br  Br46  1  0.13572045  0.62693383  0.64382217  1
  Br  Br47  1  0.11346216  0.57831511  0.86521268  1
  Br  Br48  1  0.86163523  0.38965889  0.11368367  1
  Br  Br49  1  0.88901344  0.36007339  0.38259622  1
  Br  Br50  1  0.85703188  0.39009848  0.62507459  1
  Br  Br51  1  0.88877394  0.38875601  0.87359983  1
  Br  Br52  1  0.60886108  0.57045166  0.12946078  1
  Br  Br53  1  0.61681456  0.61131590  0.36993152  1
  Br  Br54  1  0.60144149  0.56742451  0.62148772  1
  Br  Br55  1  0.63227552  0.63768039  0.87422340  1
  Br  Br56  1  0.38973077  0.88547996  0.12647615  1
  Br  Br57  1  0.35922367  0.86310409  0.38255650  1
  Br  Br58  1  0.39990441  0.89593295  0.61157512  1
  Br  Br59  1  0.35877528  0.89285733  0.88327485  1
  Br  Br60  1  0.86092114  0.89000382  0.10566046  1
  Br  Br61  1  0.88919994  0.85824005  0.39431631  1
  Br  Br62  1  0.86213088  0.89024132  0.61639953  1
  Br  Br63  1  0.88435597  0.88706918  0.89040791  1
  Br  Br64  1  0.85996404  0.13814860  0.13410990  1
  Br  Br65  1  0.89335490  0.11300581  0.36722975  1
  Br  Br66  1  0.85803241  0.13788264  0.62749096  1
  Br  Br67  1  0.88944530  0.13905252  0.86465358  1
  Br  Br68  1  0.39313078  0.13694814  0.13100006  1
  Br  Br69  1  0.36251053  0.10870898  0.36272448  1
  Br  Br70  1  0.38756795  0.14219279  0.64266395  1
  Br  Br71  1  0.35591050  0.14379669  0.85284458  1
  Br  Br72  1  0.10756411  0.38186436  0.11167425  1
  Br  Br73  1  0.10667584  0.43164596  0.37662971  1
  Br  Br74  1  0.12006255  0.38364577  0.62202631  1
  Br  Br75  1  0.13974549  0.32571055  0.87997676  1
  Br  Br76  1  0.85553539  0.63996827  0.14277681  1
  Br  Br77  1  0.89299689  0.61130396  0.36883967  1
  Br  Br78  1  0.85133015  0.63975322  0.64098027  1
  Br  Br79  1  0.89241785  0.63913521  0.86298598  1
  Br  Br80  1  0.64218985  0.32015431  0.12324539  1
  Br  Br81  1  0.63525656  0.36362814  0.38247643  1
  Br  Br82  1  0.63889439  0.32036566  0.61950890  1
  Br  Br83  1  0.60890800  0.38677880  0.90184771  1
  Br  Br84  1  0.38909677  0.63797574  0.13185875  1
  Br  Br85  1  0.36090621  0.60914789  0.36155898  1
  Br  Br86  1  0.38253898  0.64675585  0.63451111  1
  Br  Br87  1  0.35746115  0.64378876  0.88003494  1
  Br  Br88  1  0.10859879  0.88341093  0.11108327  1
  Br  Br89  1  0.10750593  0.93171251  0.37964683  1
  Br  Br90  1  0.11355959  0.88498701  0.59956368  1
  Br  Br91  1  0.13570749  0.82893458  0.88498532  1
  Br  Br92  1  0.64309160  0.81921238  0.12949882  1
  Br  Br93  1  0.63619928  0.86146383  0.38635080  1
  Br  Br94  1  0.64326488  0.81772832  0.62116732  1
  Br  Br95  1  0.61209549  0.88659649  0.87857584  1
  Cs  Cs96  1  0.99318749  0.01149098  0.00389412  1
  Cs  Cs97  1  0.00423856  0.01707618  0.23931799  1
  Cs  Cs98  1  0.98904360  0.01944226  0.50431266  1
  Cs  Cs99  1  0.00072000  0.00835145  0.73462338  1
  Cs  Cs100  1  0.49906573  0.99376671  0.00114135  1
  Cs  Cs101  1  0.49251767  0.98381424  0.25826711  1
  Cs  Cs102  1  0.50450885  0.99345939  0.48486613  1
  Cs  Cs103  1  0.48694064  0.99829153  0.75738018  1
  Cs  Cs104  1  0.25615617  0.25048006  0.01024024  1
  Cs  Cs105  1  0.25611570  0.25041582  0.24355095  1
  Cs  Cs106  1  0.25088510  0.26337524  0.51213165  1
  Cs  Cs107  1  0.24852754  0.26494724  0.74060845  1
  Cs  Cs108  1  0.99847290  0.49631295  0.99675223  1
  Cs  Cs109  1  0.99431466  0.50374153  0.24097615  1
  Cs  Cs110  1  0.99564516  0.49903092  0.50918723  1
  Cs  Cs111  1  0.98710769  0.50285635  0.73982579  1
  Cs  Cs112  1  0.75471159  0.25879488  0.98837923  1
  Cs  Cs113  1  0.75216346  0.24077119  0.25970211  1
  Cs  Cs114  1  0.75470561  0.23946393  0.49122859  1
  Cs  Cs115  1  0.76344012  0.26089002  0.75048965  1
  Cs  Cs116  1  0.48641718  0.52380056  0.99606897  1
  Cs  Cs117  1  0.49672013  0.48603098  0.25733221  1
  Cs  Cs118  1  0.49745792  0.48591778  0.48532977  1
  Cs  Cs119  1  0.50004259  0.52425069  0.76512290  1
  Cs  Cs120  1  0.25493372  0.76135412  0.01518876  1
  Cs  Cs121  1  0.26196182  0.76648276  0.24700809  1
  Cs  Cs122  1  0.25207998  0.75620828  0.50880586  1
  Cs  Cs123  1  0.24944189  0.74400708  0.75516384  1
  Cs  Cs124  1  0.75196365  0.75695043  0.99084214  1
  Cs  Cs125  1  0.74902605  0.73650711  0.26710097  1
  Cs  Cs126  1  0.75577142  0.72970587  0.49490390  1
  Cs  Cs127  1  0.75260523  0.75890917  0.76143492  1
  Hg  Hg128  1  0.99897320  0.24312706  0.12538668  1
  Hg  Hg129  1  0.00312333  0.25096511  0.37237853  1
  Hg  Hg130  1  0.00463840  0.23956373  0.62587267  1
  Hg  Hg131  1  0.00059038  0.25132077  0.87641995  1
  Hg  Hg132  1  0.50011106  0.25317221  0.12111170  1
  Hg  Hg133  1  0.50125967  0.25348722  0.37727411  1
  Hg  Hg134  1  0.49999323  0.25123041  0.63364737  1
  Hg  Hg135  1  0.50494961  0.24313204  0.87126015  1
  Hg  Hg136  1  0.24165536  0.49166463  0.12465319  1
  Hg  Hg137  1  0.24835334  0.50011612  0.37809718  1
  Hg  Hg138  1  0.25154607  0.49390179  0.62511300  1
  Hg  Hg139  1  0.24826337  0.49944682  0.87444531  1
  Hg  Hg140  1  0.00205576  0.73851825  0.13081787  1
  Hg  Hg141  1  0.00202518  0.75234618  0.37099179  1
  Hg  Hg142  1  0.00503287  0.74091652  0.62751133  1
  Hg  Hg143  1  0.99742831  0.75485895  0.88055157  1
  Hg  Hg144  1  0.75049072  0.50163827  0.12447676  1
  Hg  Hg145  1  0.75056756  0.50398737  0.37322198  1
  Hg  Hg146  1  0.74572967  0.50410183  0.62474719  1
  Hg  Hg147  1  0.74136781  0.49063470  0.87889632  1
  Hg  Hg148  1  0.50255189  0.74845934  0.12818537  1
  Hg  Hg149  1  0.50253873  0.75395539  0.37980281  1
  Hg  Hg150  1  0.50016961  0.75210637  0.62518474  1
  Hg  Hg151  1  0.49988601  0.74731847  0.87667611  1
  Hg  Hg152  1  0.24255899  0.99125266  0.12346049  1
  Hg  Hg153  1  0.24850201  0.00132475  0.38145155  1
  Hg  Hg154  1  0.24803868  0.98511993  0.62039984  1
  Hg  Hg155  1  0.25139766  0.00875020  0.87142411  1
  Hg  Hg156  1  0.74941226  0.99678546  0.12533225  1
  Hg  Hg157  1  0.75002429  0.00359872  0.37040725  1
  Hg  Hg158  1  0.74660726  0.99720063  0.62387035  1
  Hg  Hg159  1  0.74414517  0.99922575  0.87345232  1
