# generated using pymatgen
data_CsHgI3
_symmetry_space_group_name_H-M   'P 1'
_cell_length_a   17.22472804
_cell_length_b   17.22472804
_cell_length_c   24.35944300
_cell_angle_alpha   90.00000000
_cell_angle_beta   90.00000000
_cell_angle_gamma   90.00000000
_symmetry_Int_Tables_number   1
_chemical_formula_structural   CsHgI3
_chemical_formula_sum   'Cs32 Hg32 I96'
_cell_volume   7227.23373900
_cell_formula_units_Z   32
loop_
 _symmetry_equiv_pos_site_id
 _symmetry_equiv_pos_as_xyz
  1  'x, y, z'
loop_
 _atom_site_type_symbol
 _atom_site_label
 _atom_site_symmetry_multiplicity
 _atom_site_fract_x
 _atom_site_fract_y
 _atom_site_fract_z
 _atom_site_occupancy
  Cs  Cs0  1  0.02381689  0.97121481  0.98715438  1
  Cs  Cs1  1  0.98054433  0.02978950  0.27142403  1
  Cs  Cs2  1  0.99891533  0.00143144  0.50651927  1
  Cs  Cs3  1  0.03594454  0.98806188  0.75034354  1
  Cs  Cs4  1  0.48725645  0.04568189  0.01154981  1
  Cs  Cs5  1  0.51172059  0.01318599  0.22327573  1
  Cs  Cs6  1  0.49670375  0.95635978  0.49671057  1
  Cs  Cs7  1  0.49771206  0.00802382  0.75833131  1
  Cs  Cs8  1  0.24338929  0.22460714  0.99935986  1
  Cs  Cs9  1  0.23191306  0.25622935  0.26323261  1
  Cs  Cs10  1  0.21702317  0.25492486  0.50521412  1
  Cs  Cs11  1  0.26127292  0.23321960  0.76781617  1
  Cs  Cs12  1  0.03525909  0.45251833  0.99821644  1
  Cs  Cs13  1  0.96498849  0.51462624  0.27267487  1
  Cs  Cs14  1  0.95263283  0.54119475  0.50467125  1
  Cs  Cs15  1  -0.00079677  0.51137518  0.72624298  1
  Cs  Cs16  1  0.78853035  0.28502254  0.00277311  1
  Cs  Cs17  1  0.77174695  0.25679235  0.24964117  1
  Cs  Cs18  1  0.75385914  0.24142847  0.51102045  1
  Cs  Cs19  1  0.77128617  0.27606784  0.74143050  1
  Cs  Cs20  1  0.51065862  0.49459433  0.97386810  1
  Cs  Cs21  1  0.52025474  0.51460699  0.23487098  1
  Cs  Cs22  1  0.49533102  0.46769374  0.48113847  1
  Cs  Cs23  1  0.48370447  0.45545103  0.72599902  1
  Cs  Cs24  1  0.24076120  0.71333636  0.99425460  1
  Cs  Cs25  1  0.22428878  0.77201571  0.27723628  1
  Cs  Cs26  1  0.25650703  0.71889577  0.49558387  1
  Cs  Cs27  1  0.24623042  0.72605999  0.75830850  1
  Cs  Cs28  1  0.76623007  0.76616666  0.00284025  1
  Cs  Cs29  1  0.76819119  0.79072241  0.24656805  1
  Cs  Cs30  1  0.72637857  0.75880327  0.50543709  1
  Cs  Cs31  1  0.71577548  0.75535692  0.74601016  1
  Hg  Hg32  1  0.01382189  0.24145599  0.13239738  1
  Hg  Hg33  1  0.00157430  0.25234765  0.37507256  1
  Hg  Hg34  1  0.00064315  0.23539408  0.63446062  1
  Hg  Hg35  1  0.97631199  0.21302453  0.88097934  1
  Hg  Hg36  1  0.48466406  0.28594186  0.12296594  1
  Hg  Hg37  1  0.48802841  0.25195117  0.36227866  1
  Hg  Hg38  1  0.49580070  0.24654616  0.59475729  1
  Hg  Hg39  1  0.52400997  0.23769414  0.85535118  1
  Hg  Hg40  1  0.27672967  0.52915087  0.11821290  1
  Hg  Hg41  1  0.24005843  0.47881436  0.36685689  1
  Hg  Hg42  1  0.24717937  0.46988445  0.62257684  1
  Hg  Hg43  1  0.25773646  0.49279763  0.86858609  1
  Hg  Hg44  1  0.02992569  0.72324085  0.13539855  1
  Hg  Hg45  1  0.98141670  0.73196848  0.37660141  1
  Hg  Hg46  1  0.98442759  0.75028071  0.61776035  1
  Hg  Hg47  1  0.02336851  0.73846889  0.87777869  1
  Hg  Hg48  1  0.75869905  0.49727629  0.10439759  1
  Hg  Hg49  1  0.73040481  0.49357553  0.36051330  1
  Hg  Hg50  1  0.74830607  0.49841077  0.62173494  1
  Hg  Hg51  1  0.77488463  0.51215722  0.87864484  1
  Hg  Hg52  1  0.50834593  0.73518191  0.12896790  1
  Hg  Hg53  1  0.47938557  0.75666858  0.38273885  1
  Hg  Hg54  1  0.48846666  0.75120341  0.63026916  1
  Hg  Hg55  1  0.52259955  0.78584228  0.87793343  1
  Hg  Hg56  1  0.25787288  0.01147879  0.14075012  1
  Hg  Hg57  1  0.24304195  0.97756573  0.38079018  1
  Hg  Hg58  1  0.25022509  0.00770082  0.60911267  1
  Hg  Hg59  1  0.27868283  0.98549370  0.87969337  1
  Hg  Hg60  1  0.73743967  0.99508770  0.10115453  1
  Hg  Hg61  1  0.72881610  0.00616032  0.36402553  1
  Hg  Hg62  1  0.74399871  0.00436667  0.63301009  1
  Hg  Hg63  1  0.77792539  0.98835247  0.89168714  1
  I  I64  1  0.00731238  0.22068057  0.99844931  1
  I  I65  1  0.00199037  0.29236587  0.25787713  1
  I  I66  1  0.98962219  0.22471618  0.52225513  1
  I  I67  1  0.02425446  0.28845958  0.73893715  1
  I  I68  1  0.45900896  0.27675731  0.01360063  1
  I  I69  1  0.54758035  0.27394659  0.22453536  1
  I  I70  1  0.43841839  0.23908903  0.48278212  1
  I  I71  1  0.54882118  0.22643899  0.74126962  1
  I  I72  1  0.28435984  0.48689464  0.00663390  1
  I  I73  1  0.18966879  0.49641449  0.26351978  1
  I  I74  1  0.27106542  0.49250178  0.47507094  1
  I  I75  1  0.22680652  0.48799556  0.74237279  1
  I  I76  1  0.98802206  0.74134391  0.98975388  1
  I  I77  1  0.00021346  0.80055310  0.27085984  1
  I  I78  1  0.95212629  0.77427430  0.49225257  1
  I  I79  1  0.01784615  0.74399745  0.76285146  1
  I  I80  1  0.82240246  0.54534587  0.99371295  1
  I  I81  1  0.74524910  0.47613117  0.24274224  1
  I  I82  1  0.71523235  0.53752228  0.51443964  1
  I  I83  1  0.71246480  0.49036964  0.73255735  1
  I  I84  1  0.46988292  0.69700508  0.02613915  1
  I  I85  1  0.54082990  0.77606681  0.23253799  1
  I  I86  1  0.48706010  0.71645407  0.49773029  1
  I  I87  1  0.47622012  0.78571421  0.76638801  1
  I  I88  1  0.24852936  0.00408414  0.99190835  1
  I  I89  1  0.21127987  0.00480054  0.26727895  1
  I  I90  1  0.29167520  0.04185863  0.48050776  1
  I  I91  1  0.27314667  0.97619135  0.76655654  1
  I  I92  1  0.81603897  0.05586521  0.99358436  1
  I  I93  1  0.73458785  0.02291197  0.24701059  1
  I  I94  1  0.77130050  0.99011285  0.52361427  1
  I  I95  1  0.71516680  0.98727459  0.74198064  1
  I  I96  1  0.10705848  0.05983507  0.12515017  1
  I  I97  1  0.11820180  0.13398296  0.38669174  1
  I  I98  1  0.15487251  0.14013173  0.64399367  1
  I  I99  1  0.11407195  0.12499221  0.86242703  1
  I  I100  1  0.65459790  0.13326081  0.11070067  1
  I  I101  1  0.61719820  0.09418246  0.41058754  1
  I  I102  1  0.60101331  0.11942102  0.59709513  1
  I  I103  1  0.63674088  0.17213015  0.91976663  1
  I  I104  1  0.35446283  0.39485640  0.16482249  1
  I  I105  1  0.39267790  0.39284198  0.34062487  1
  I  I106  1  0.35387142  0.31038149  0.63784182  1
  I  I107  1  0.42120589  0.36426199  0.86306217  1
  I  I108  1  0.11049324  0.56111671  0.12703143  1
  I  I109  1  0.10240678  0.62435090  0.39480549  1
  I  I110  1  0.11081051  0.65298471  0.61562761  1
  I  I111  1  0.11297868  0.58940783  0.88626096  1
  I  I112  1  0.89273217  0.40498496  0.12466198  1
  I  I113  1  0.84723603  0.40269789  0.40093704  1
  I  I114  1  0.87433412  0.38654665  0.61257637  1
  I  I115  1  0.91595224  0.36597596  0.87007070  1
  I  I116  1  0.67574770  0.63749307  0.12748282  1
  I  I117  1  0.60312556  0.58540243  0.37362845  1
  I  I118  1  0.58225970  0.62688973  0.65092628  1
  I  I119  1  0.62972505  0.66850190  0.89389811  1
  I  I120  1  0.36338841  0.89299581  0.12903237  1
  I  I121  1  0.39374713  0.89742841  0.35049618  1
  I  I122  1  0.34273252  0.81130403  0.62664989  1
  I  I123  1  0.39984700  0.86301132  0.92907458  1
  I  I124  1  0.86761655  0.90489998  0.12425469  1
  I  I125  1  0.85284436  0.91127781  0.38528749  1
  I  I126  1  0.91110569  0.88650243  0.64443486  1
  I  I127  1  0.86749368  0.86139242  0.85815842  1
  I  I128  1  0.89247767  0.14351768  0.14143971  1
  I  I129  1  0.86556748  0.16150686  0.38250459  1
  I  I130  1  0.87952291  0.11717899  0.65834908  1
  I  I131  1  0.86245208  0.11353315  0.82937335  1
  I  I132  1  0.35635899  0.14673539  0.14071529  1
  I  I133  1  0.39442164  0.13393089  0.32704374  1
  I  I134  1  0.39735992  0.05934143  0.62359735  1
  I  I135  1  0.38764118  0.12581505  0.87916214  1
  I  I136  1  0.14440062  0.32581475  0.12111027  1
  I  I137  1  0.07711668  0.38630615  0.41234678  1
  I  I138  1  0.10875931  0.40852630  0.59284050  1
  I  I139  1  0.17521139  0.35760368  0.88432589  1
  I  I140  1  0.88860754  0.66084994  0.14507449  1
  I  I141  1  0.83329599  0.65506898  0.36640054  1
  I  I142  1  0.85058013  0.64820493  0.63811956  1
  I  I143  1  0.86631478  0.61946919  0.83075207  1
  I  I144  1  0.63287536  0.39449797  0.08283047  1
  I  I145  1  0.63129923  0.32186675  0.37526089  1
  I  I146  1  0.60661411  0.36947808  0.60035915  1
  I  I147  1  0.66612589  0.39975791  0.88079065  1
  I  I148  1  0.34748895  0.65140655  0.17381350  1
  I  I149  1  0.37945363  0.64121903  0.34461558  1
  I  I150  1  0.37106287  0.56430898  0.60639905  1
  I  I151  1  0.37440037  0.60165797  0.86254708  1
  I  I152  1  0.15061689  0.81896539  0.12328779  1
  I  I153  1  0.13144942  0.86648449  0.41395770  1
  I  I154  1  0.14224198  0.89251715  0.60804718  1
  I  I155  1  0.15264207  0.85239473  0.88294047  1
  I  I156  1  0.61249937  0.88673330  0.07913844  1
  I  I157  1  0.62494920  0.83323774  0.37100551  1
  I  I158  1  0.60728380  0.86934167  0.61698209  1
  I  I159  1  0.61947755  0.94029998  0.89113183  1
