# generated using pymatgen
data_CsInCl3
_symmetry_space_group_name_H-M   'P 1'
_cell_length_a   15.50328224
_cell_length_b   15.50328224
_cell_length_c   21.92495100
_cell_angle_alpha   90.00000000
_cell_angle_beta   90.00000000
_cell_angle_gamma   90.00000000
_symmetry_Int_Tables_number   1
_chemical_formula_structural   CsInCl3
_chemical_formula_sum   'Cs32 In32 Cl96'
_cell_volume   5269.70056298
_cell_formula_units_Z   32
loop_
 _symmetry_equiv_pos_site_id
 _symmetry_equiv_pos_as_xyz
  1  'x, y, z'
loop_
 _atom_site_type_symbol
 _atom_site_label
 _atom_site_symmetry_multiplicity
 _atom_site_fract_x
 _atom_site_fract_y
 _atom_site_fract_z
 _atom_site_occupancy
  Cs  Cs0  1  0.00797687  0.98169610  0.99806722  1
  Cs  Cs1  1  0.99158480  0.00302480  0.23730464  1
  Cs  Cs2  1  0.00049834  0.01575086  0.49247704  1
  Cs  Cs3  1  0.01209807  0.99528822  0.75606176  1
  Cs  Cs4  1  0.49128342  0.00154894  0.99290278  1
  Cs  Cs5  1  0.49805594  0.98844863  0.25607838  1
  Cs  Cs6  1  0.50667117  0.99854995  0.51276553  1
  Cs  Cs7  1  0.49461032  0.01457343  0.75079632  1
  Cs  Cs8  1  0.23601375  0.25211464  0.99102017  1
  Cs  Cs9  1  0.24764113  0.26174882  0.25453412  1
  Cs  Cs10  1  0.25205112  0.25109489  0.51692768  1
  Cs  Cs11  1  0.25620992  0.24526744  0.75739464  1
  Cs  Cs12  1  0.01004004  0.49975828  0.01344343  1
  Cs  Cs13  1  0.99299957  0.52050154  0.25142534  1
  Cs  Cs14  1  0.98822386  0.50179945  0.49434956  1
  Cs  Cs15  1  0.99907324  0.48196071  0.75682095  1
  Cs  Cs16  1  0.75221344  0.23981885  0.99538831  1
  Cs  Cs17  1  0.76357419  0.25017072  0.25909792  1
  Cs  Cs18  1  0.74458435  0.25417803  0.49274852  1
  Cs  Cs19  1  0.74897843  0.24392032  0.73294198  1
  Cs  Cs20  1  0.50345153  0.51368115  0.99437493  1
  Cs  Cs21  1  0.51028554  0.50140369  0.25614665  1
  Cs  Cs22  1  0.50525883  0.48275339  0.49958088  1
  Cs  Cs23  1  0.49321859  0.49894596  0.73678957  1
  Cs  Cs24  1  0.24716263  0.75335526  0.99361223  1
  Cs  Cs25  1  0.24879915  0.74968793  0.23305851  1
  Cs  Cs26  1  0.25338091  0.74121041  0.49623925  1
  Cs  Cs27  1  0.26793356  0.74542300  0.75880332  1
  Cs  Cs28  1  0.75234693  0.75598911  0.01664228  1
  Cs  Cs29  1  0.75420821  0.74944134  0.25649011  1
  Cs  Cs30  1  0.73445226  0.75394105  0.49089276  1
  Cs  Cs31  1  0.74840647  0.75900855  0.75419668  1
  In  In32  1  0.99987679  0.25180525  0.12499918  1
  In  In33  1  0.01003861  0.25137522  0.37512651  1
  In  In34  1  0.00062942  0.24742146  0.62494949  1
  In  In35  1  0.99111141  0.25024450  0.87477074  1
  In  In36  1  0.49986164  0.25177463  0.12499819  1
  In  In37  1  0.49044049  0.24511962  0.37380572  1
  In  In38  1  0.50027633  0.24823961  0.62501864  1
  In  In39  1  0.51061218  0.25742117  0.87612562  1
  In  In40  1  0.26194745  0.49538481  0.12580376  1
  In  In41  1  0.24906357  0.50240904  0.37508572  1
  In  In42  1  0.23743177  0.50435078  0.62439377  1
  In  In43  1  0.25242155  0.49891628  0.87501049  1
  In  In44  1  0.00005198  0.75183721  0.12500216  1
  In  In45  1  0.00794348  0.75913474  0.37661042  1
  In  In46  1  0.00016916  0.74820870  0.62499802  1
  In  In47  1  0.99389533  0.74056485  0.87345482  1
  In  In48  1  0.74479712  0.48934669  0.12354159  1
  In  In49  1  0.74908004  0.50237665  0.37498268  1
  In  In50  1  0.75715378  0.51060440  0.62646522  1
  In  In51  1  0.75229868  0.49897517  0.87501865  1
  In  In52  1  0.50060853  0.75216623  0.12503725  1
  In  In53  1  0.48857871  0.75272738  0.37477229  1
  In  In54  1  0.50090327  0.74761494  0.62498437  1
  In  In55  1  0.51298071  0.74692269  0.87537270  1
  In  In56  1  0.25538756  0.01387915  0.12617790  1
  In  In57  1  0.24963508  0.00195192  0.37502017  1
  In  In58  1  0.24425979  0.98609504  0.62393574  1
  In  In59  1  0.25229121  0.99895435  0.87498755  1
  In  In60  1  0.73822753  0.00881141  0.12449244  1
  In  In61  1  0.74899029  0.00246975  0.37499005  1
  In  In62  1  0.76280683  0.99226469  0.62532723  1
  In  In63  1  0.75228481  0.99893854  0.87496036  1
  Cl  Cl64  1  0.98775622  0.26914696  0.00920276  1
  Cl  Cl65  1  0.01218516  0.23436867  0.24077188  1
  Cl  Cl66  1  0.01850758  0.26803305  0.50982426  1
  Cl  Cl67  1  0.98293568  0.22777853  0.74012705  1
  Cl  Cl68  1  0.51252980  0.25031400  0.00913811  1
  Cl  Cl69  1  0.48722955  0.25270585  0.24087490  1
  Cl  Cl70  1  0.50334504  0.23978500  0.50894427  1
  Cl  Cl71  1  0.49713628  0.25726939  0.74109422  1
  Cl  Cl72  1  0.24798994  0.50279673  0.99151935  1
  Cl  Cl73  1  0.27904369  0.49986901  0.26042751  1
  Cl  Cl74  1  0.21913325  0.50475132  0.48975619  1
  Cl  Cl75  1  0.25651851  0.49499705  0.75853534  1
  Cl  Cl76  1  0.00368574  0.74132451  0.00896122  1
  Cl  Cl77  1  0.99664463  0.76180211  0.24108153  1
  Cl  Cl78  1  0.01643422  0.74473573  0.50935476  1
  Cl  Cl79  1  0.98440648  0.75186361  0.74067551  1
  Cl  Cl80  1  0.74951081  0.47392869  0.98998776  1
  Cl  Cl81  1  0.74958264  0.50419227  0.25866767  1
  Cl  Cl82  1  0.74893513  0.49929315  0.49124565  1
  Cl  Cl83  1  0.75438201  0.52468930  0.76010621  1
  Cl  Cl84  1  0.51731648  0.76880471  0.00953873  1
  Cl  Cl85  1  0.48390278  0.73511475  0.24049097  1
  Cl  Cl86  1  0.48999063  0.76589138  0.50921765  1
  Cl  Cl87  1  0.51167799  0.72997464  0.74081838  1
  Cl  Cl88  1  0.25220111  0.99714472  0.99121498  1
  Cl  Cl89  1  0.25325596  0.02580612  0.25987073  1
  Cl  Cl90  1  0.24619838  0.97751337  0.49014856  1
  Cl  Cl91  1  0.25160006  0.00117494  0.75873004  1
  Cl  Cl92  1  0.72240977  0.99930264  0.98975411  1
  Cl  Cl93  1  0.75511286  0.99895974  0.25853362  1
  Cl  Cl94  1  0.74265204  0.00534126  0.49144175  1
  Cl  Cl95  1  0.78156115  0.99915569  0.76007879  1
  Cl  Cl96  1  0.09549971  0.11842955  0.10973465  1
  Cl  Cl97  1  0.17128062  0.14631564  0.38873611  1
  Cl  Cl98  1  0.10175640  0.11734334  0.62208427  1
  Cl  Cl99  1  0.13667552  0.11782791  0.87564076  1
  Cl  Cl100  1  0.56772420  0.10056037  0.12821036  1
  Cl  Cl101  1  0.64110255  0.12722100  0.36993230  1
  Cl  Cl102  1  0.61127197  0.12482914  0.63082951  1
  Cl  Cl103  1  0.65780248  0.13299713  0.86189139  1
  Cl  Cl104  1  0.43189681  0.40271859  0.12166320  1
  Cl  Cl105  1  0.33991106  0.36588180  0.38951080  1
  Cl  Cl106  1  0.38892178  0.37152739  0.61917235  1
  Cl  Cl107  1  0.35847061  0.37253065  0.87931265  1
  Cl  Cl108  1  0.11103174  0.62821972  0.13147595  1
  Cl  Cl109  1  0.15848538  0.63880596  0.36062565  1
  Cl  Cl110  1  0.06707065  0.59692229  0.63084775  1
  Cl  Cl111  1  0.14642001  0.62540224  0.87078792  1
  Cl  Cl112  1  0.90402532  0.38486069  0.14044216  1
  Cl  Cl113  1  0.86375635  0.38262043  0.37456987  1
  Cl  Cl114  1  0.89897290  0.37750601  0.62791225  1
  Cl  Cl115  1  0.82837756  0.35362871  0.85966172  1
  Cl  Cl116  1  0.60304350  0.62271032  0.12311258  1
  Cl  Cl117  1  0.63473325  0.62195342  0.37516430  1
  Cl  Cl118  1  0.59932081  0.61661010  0.61027648  1
  Cl  Cl119  1  0.67554272  0.64424926  0.89025591  1
  Cl  Cl120  1  0.39797296  0.88136287  0.12665423  1
  Cl  Cl121  1  0.32757708  0.85727695  0.36121457  1
  Cl  Cl122  1  0.40194162  0.87863598  0.63968929  1
  Cl  Cl123  1  0.36733439  0.87975423  0.87433302  1
  Cl  Cl124  1  0.88953105  0.87566659  0.11871093  1
  Cl  Cl125  1  0.85709808  0.87766264  0.38003974  1
  Cl  Cl126  1  0.93325806  0.89963635  0.61909031  1
  Cl  Cl127  1  0.84619294  0.86464015  0.88802665  1
  Cl  Cl128  1  0.86698837  0.15384880  0.12586587  1
  Cl  Cl129  1  0.87250456  0.11288487  0.37575700  1
  Cl  Cl130  1  0.86984280  0.15000255  0.60476678  1
  Cl  Cl131  1  0.88548000  0.09359262  0.89212141  1
  Cl  Cl132  1  0.34923154  0.18327706  0.11804865  1
  Cl  Cl133  1  0.39555965  0.07788565  0.38556889  1
  Cl  Cl134  1  0.37732426  0.13679199  0.62847228  1
  Cl  Cl135  1  0.37100634  0.11496528  0.87540170  1
  Cl  Cl136  1  0.13275121  0.34985067  0.12417211  1
  Cl  Cl137  1  0.11373649  0.41037086  0.35874642  1
  Cl  Cl138  1  0.13097342  0.34578562  0.64459336  1
  Cl  Cl139  1  0.12725364  0.39036347  0.87536313  1
  Cl  Cl140  1  0.87654171  0.64112077  0.12864715  1
  Cl  Cl141  1  0.86838025  0.61771339  0.37597930  1
  Cl  Cl142  1  0.84935731  0.68074155  0.61628921  1
  Cl  Cl143  1  0.89908347  0.57343202  0.88516315  1
  Cl  Cl144  1  0.65043280  0.32017481  0.13203385  1
  Cl  Cl145  1  0.62977130  0.38672013  0.37413503  1
  Cl  Cl146  1  0.62330643  0.35970626  0.62177861  1
  Cl  Cl147  1  0.60521442  0.42463241  0.86495850  1
  Cl  Cl148  1  0.37093847  0.65211817  0.10735857  1
  Cl  Cl149  1  0.38481169  0.59378184  0.39167046  1
  Cl  Cl150  1  0.36996744  0.64676557  0.62431103  1
  Cl  Cl151  1  0.37764685  0.60710621  0.87481688  1
  Cl  Cl152  1  0.12367976  0.86244501  0.12108980  1
  Cl  Cl153  1  0.10373144  0.92569917  0.36443530  1
  Cl  Cl154  1  0.15094641  0.81611002  0.63378073  1
  Cl  Cl155  1  0.13346303  0.88282812  0.87436389  1
  Cl  Cl156  1  0.63030992  0.85172165  0.14300173  1
  Cl  Cl157  1  0.62538122  0.89205004  0.37405419  1
  Cl  Cl158  1  0.63132972  0.84895926  0.62563399  1
  Cl  Cl159  1  0.61871886  0.90439153  0.85771713  1
