# generated using pymatgen
data_CsInBr3
_symmetry_space_group_name_H-M   'P 1'
_cell_length_a   16.30399864
_cell_length_b   16.30399864
_cell_length_c   23.05733700
_cell_angle_alpha   90.00000000
_cell_angle_beta   90.00000000
_cell_angle_gamma   90.00000000
_symmetry_Int_Tables_number   1
_chemical_formula_structural   CsInBr3
_chemical_formula_sum   'Cs32 In32 Br96'
_cell_volume   6129.10989195
_cell_formula_units_Z   32
loop_
 _symmetry_equiv_pos_site_id
 _symmetry_equiv_pos_as_xyz
  1  'x, y, z'
loop_
 _atom_site_type_symbol
 _atom_site_label
 _atom_site_symmetry_multiplicity
 _atom_site_fract_x
 _atom_site_fract_y
 _atom_site_fract_z
 _atom_site_occupancy
  Cs  Cs0  1  0.00070161  -0.00036567  0.00017464  1
  Cs  Cs1  1  -0.00213347  0.00024600  0.24789818  1
  Cs  Cs2  1  -0.00142747  0.00030439  0.50028039  1
  Cs  Cs3  1  -0.00032562  0.00015116  0.74933695  1
  Cs  Cs4  1  0.49937964  0.00024664  0.00028424  1
  Cs  Cs5  1  0.50076297  -0.00087755  0.24887743  1
  Cs  Cs6  1  0.50138448  -0.00238170  0.49990165  1
  Cs  Cs7  1  0.50015121  -0.00022262  0.74978648  1
  Cs  Cs8  1  0.25090178  0.24930692  0.99939564  1
  Cs  Cs9  1  0.24994899  0.25019227  0.24915110  1
  Cs  Cs10  1  0.24904473  0.25266728  0.50024323  1
  Cs  Cs11  1  0.24958073  0.25050512  0.75050806  1
  Cs  Cs12  1  0.00006581  0.49955142  0.99972417  1
  Cs  Cs13  1  -0.00051313  0.49975710  0.25045626  1
  Cs  Cs14  1  0.00065369  0.49977787  0.49935298  1
  Cs  Cs15  1  -0.00012792  0.50040690  0.75032661  1
  Cs  Cs16  1  0.74940214  0.24949384  -0.00091848  1
  Cs  Cs17  1  0.75030858  0.24946551  0.25002362  1
  Cs  Cs18  1  0.75090001  0.24970992  0.49965797  1
  Cs  Cs19  1  0.75140705  0.24927817  0.75076464  1
  Cs  Cs20  1  0.50053508  0.49721812  0.00006119  1
  Cs  Cs21  1  0.50048848  0.49862782  0.25032745  1
  Cs  Cs22  1  0.49944921  0.50046646  0.49950729  1
  Cs  Cs23  1  0.49961007  0.49986504  0.74966322  1
  Cs  Cs24  1  0.24941396  0.75207009  0.00005587  1
  Cs  Cs25  1  0.25034916  0.74935803  0.24917021  1
  Cs  Cs26  1  0.25077810  0.74893327  0.50022097  1
  Cs  Cs27  1  0.24935476  0.75106757  0.74893398  1
  Cs  Cs28  1  0.75065719  0.75035442  0.00019550  1
  Cs  Cs29  1  0.75049546  0.74957957  0.24938185  1
  Cs  Cs30  1  0.74956470  0.75023273  0.50019688  1
  Cs  Cs31  1  0.75108031  0.75024954  0.74868151  1
  In  In32  1  0.00051243  0.25049337  0.12402589  1
  In  In33  1  0.00092966  0.24921936  0.37425609  1
  In  In34  1  -0.00118327  0.25062637  0.62466375  1
  In  In35  1  -0.00007053  0.25026832  0.87461261  1
  In  In36  1  0.50067709  0.24982643  0.12468620  1
  In  In37  1  0.49902789  0.24810147  0.37653157  1
  In  In38  1  0.50066337  0.24983844  0.62533194  1
  In  In39  1  0.50099197  0.25066360  0.87280308  1
  In  In40  1  0.24971911  0.49994271  0.12533044  1
  In  In41  1  0.24942465  0.49888004  0.37329023  1
  In  In42  1  0.24943659  0.49999765  0.62475508  1
  In  In43  1  0.25050278  0.50150472  0.87620144  1
  In  In44  1  0.00061034  0.74880446  0.12412672  1
  In  In45  1  0.00132099  0.75080350  0.37402657  1
  In  In46  1  -0.00002877  0.74925478  0.62442956  1
  In  In47  1  -0.00150983  0.74929332  0.87463856  1
  In  In48  1  0.75128699  0.49959206  0.12410237  1
  In  In49  1  0.74964094  0.50059917  0.37448380  1
  In  In50  1  0.74888916  0.49902378  0.62472712  1
  In  In51  1  0.74879548  0.50055660  0.87440227  1
  In  In52  1  0.50006475  0.74846694  0.12332354  1
  In  In53  1  0.50051758  0.74979514  0.37458723  1
  In  In54  1  0.50069107  0.75082765  0.62637598  1
  In  In55  1  0.50035072  0.74953377  0.87432766  1
  In  In56  1  0.24902072  -0.00134055  0.12658606  1
  In  In57  1  0.24916386  0.00013649  0.37402831  1
  In  In58  1  0.25068643  0.00156511  0.62255526  1
  In  In59  1  0.24938927  0.00008960  0.87452697  1
  In  In60  1  0.75052345  -0.00032054  0.12439994  1
  In  In61  1  0.75140096  -0.00002511  0.37395378  1
  In  In62  1  0.74935911  0.00064246  0.62417710  1
  In  In63  1  0.74949884  -0.00087280  0.87450165  1
  Br  Br64  1  0.00135347  0.24815970  -0.00511492  1
  Br  Br65  1  -0.00139676  0.25046931  0.24647170  1
  Br  Br66  1  0.00000482  0.25310322  0.50378058  1
  Br  Br67  1  0.00375809  0.24943176  0.75352746  1
  Br  Br68  1  0.50144334  0.24896090  0.00448123  1
  Br  Br69  1  0.50095769  0.24955748  0.24424713  1
  Br  Br70  1  0.49986661  0.25320940  0.50438569  1
  Br  Br71  1  0.49555443  0.25098060  0.74689613  1
  Br  Br72  1  0.25101488  0.49614056  0.00436688  1
  Br  Br73  1  0.25439755  0.49774696  0.24715087  1
  Br  Br74  1  0.24853181  0.50144009  0.50419167  1
  Br  Br75  1  0.24825179  0.50105607  0.74451628  1
  Br  Br76  1  0.00114387  0.75176720  -0.00448081  1
  Br  Br77  1  0.99768043  0.74834319  0.25124074  1
  Br  Br78  1  0.00143744  0.74646888  0.50482974  1
  Br  Br79  1  0.00310331  0.74969322  0.74556117  1
  Br  Br80  1  0.74935571  0.49644033  0.00373766  1
  Br  Br81  1  0.74627537  0.50044351  0.25417274  1
  Br  Br82  1  0.74825560  0.50307943  0.49400957  1
  Br  Br83  1  0.75146133  0.50010367  0.74676043  1
  Br  Br84  1  0.49861102  0.75334395  0.99494925  1
  Br  Br85  1  0.50340840  0.74756575  0.25552576  1
  Br  Br86  1  0.50175282  0.74715317  0.49419696  1
  Br  Br87  1  0.49551095  0.75233452  0.75318497  1
  Br  Br88  1  0.24890168  0.00096040  0.99409097  1
  Br  Br89  1  0.25422112  0.99893649  0.25345128  1
  Br  Br90  1  0.25164085  0.99479606  0.49434685  1
  Br  Br91  1  0.24832111  0.00105159  0.75535252  1
  Br  Br92  1  0.74897449  0.00212459  0.00393833  1
  Br  Br93  1  0.74670072  0.00022793  0.24632396  1
  Br  Br94  1  0.74984888  -0.00242764  0.49553688  1
  Br  Br95  1  0.75285552  -0.00144751  0.75135941  1
  Br  Br96  1  0.12513919  0.12814714  0.12107010  1
  Br  Br97  1  0.12832665  0.11807582  0.37490537  1
  Br  Br98  1  0.12456684  0.13290013  0.62748213  1
  Br  Br99  1  0.12593888  0.11992114  0.87464392  1
  Br  Br100  1  0.62388874  0.12991746  0.12496980  1
  Br  Br101  1  0.62492926  0.11730997  0.37143394  1
  Br  Br102  1  0.62291073  0.13175382  0.62539570  1
  Br  Br103  1  0.62117138  0.11984909  0.87685541  1
  Br  Br104  1  0.38101350  0.37171372  0.12445190  1
  Br  Br105  1  0.37848993  0.37992318  0.37578666  1
  Br  Br106  1  0.36937927  0.37831731  0.62457376  1
  Br  Br107  1  0.37300177  0.37193265  0.87589557  1
  Br  Br108  1  0.12833297  0.61800513  0.12538385  1
  Br  Br109  1  0.12694138  0.62682001  0.37727845  1
  Br  Br110  1  0.12420051  0.62128825  0.62504818  1
  Br  Br111  1  0.12512368  0.63306612  0.87090501  1
  Br  Br112  1  0.86954821  0.37287485  0.12603782  1
  Br  Br113  1  0.86868253  0.38316289  0.37415038  1
  Br  Br114  1  0.87976958  0.37801433  0.62509896  1
  Br  Br115  1  0.88185672  0.36996626  0.87391559  1
  Br  Br116  1  0.62520771  0.61564266  0.12881342  1
  Br  Br117  1  0.62453098  0.62711026  0.37437811  1
  Br  Br118  1  0.62489842  0.62201783  0.62112579  1
  Br  Br119  1  0.61913319  0.62997040  0.87385225  1
  Br  Br120  1  0.37780714  0.87745450  0.12411322  1
  Br  Br121  1  0.38079706  0.87078055  0.37424595  1
  Br  Br122  1  0.37168880  0.87097944  0.62419930  1
  Br  Br123  1  0.37036175  0.87963884  0.87491991  1
  Br  Br124  1  0.87004348  0.88004078  0.12496353  1
  Br  Br125  1  0.86936655  0.87212720  0.37415507  1
  Br  Br126  1  0.88016063  0.86706578  0.62466497  1
  Br  Br127  1  0.88145133  0.87729982  0.87366379  1
  Br  Br128  1  0.86795430  0.12680299  0.12422301  1
  Br  Br129  1  0.87176349  0.12023851  0.37249296  1
  Br  Br130  1  0.87829731  0.13012401  0.62686859  1
  Br  Br131  1  0.88254113  0.12461725  0.87485819  1
  Br  Br132  1  0.38106020  0.13256775  0.12368395  1
  Br  Br133  1  0.37441945  0.11615377  0.37449161  1
  Br  Br134  1  0.37561099  0.13273976  0.62502675  1
  Br  Br135  1  0.36778702  0.11833073  0.87513457  1
  Br  Br136  1  0.13120772  0.37382314  0.12424692  1
  Br  Br137  1  0.12773566  0.37696047  0.37554696  1
  Br  Br138  1  0.12760750  0.38117061  0.62576221  1
  Br  Br139  1  0.12435190  0.36706664  0.87484500  1
  Br  Br140  1  0.87201197  0.61895070  0.12652864  1
  Br  Br141  1  0.86522231  0.62558317  0.37457199  1
  Br  Br142  1  0.88296615  0.62383156  0.62472938  1
  Br  Br143  1  0.87701933  0.63068094  0.87245972  1
  Br  Br144  1  0.62179115  0.36911598  0.12585571  1
  Br  Br145  1  0.62717302  0.38383333  0.37500032  1
  Br  Br146  1  0.61914476  0.37635220  0.62401814  1
  Br  Br147  1  0.62424594  0.37118911  0.87535931  1
  Br  Br148  1  0.37540421  0.61605352  0.12546519  1
  Br  Br149  1  0.38188919  0.63077639  0.37503557  1
  Br  Br150  1  0.36794672  0.61891988  0.62352471  1
  Br  Br151  1  0.37333193  0.63584342  0.87453912  1
  Br  Br152  1  0.12608279  0.87581895  0.12333539  1
  Br  Br153  1  0.13241952  0.87398296  0.37496820  1
  Br  Br154  1  0.12196786  0.86719509  0.62448021  1
  Br  Br155  1  0.13014337  0.88024345  0.87323744  1
  Br  Br156  1  0.62664025  0.88134083  0.12485433  1
  Br  Br157  1  0.62149477  0.86831085  0.37403565  1
  Br  Br158  1  0.62355009  0.87358216  0.62337323  1
  Br  Br159  1  0.61878180  0.87394984  0.87523976  1
