# generated using pymatgen
data_CsMgI3
_symmetry_space_group_name_H-M   'P 1'
_cell_length_a   16.72852151
_cell_length_b   16.72852151
_cell_length_c   23.65770300
_cell_angle_alpha   90.00000000
_cell_angle_beta   90.00000000
_cell_angle_gamma   90.00000000
_symmetry_Int_Tables_number   1
_chemical_formula_structural   CsMgI3
_chemical_formula_sum   'Cs32 Mg32 I96'
_cell_volume   6620.45279982
_cell_formula_units_Z   32
loop_
 _symmetry_equiv_pos_site_id
 _symmetry_equiv_pos_as_xyz
  1  'x, y, z'
loop_
 _atom_site_type_symbol
 _atom_site_label
 _atom_site_symmetry_multiplicity
 _atom_site_fract_x
 _atom_site_fract_y
 _atom_site_fract_z
 _atom_site_occupancy
  Cs  Cs0  1  -0.00816812  0.00765145  0.00014876  1
  Cs  Cs1  1  -0.00538701  0.00031913  0.25220876  1
  Cs  Cs2  1  -0.00338058  -0.00188062  0.49555230  1
  Cs  Cs3  1  -0.00548064  0.00285965  0.74851572  1
  Cs  Cs4  1  0.49925539  0.00404633  -0.00090812  1
  Cs  Cs5  1  0.50525548  -0.00483583  0.24966413  1
  Cs  Cs6  1  0.50580135  -0.00773350  0.49703636  1
  Cs  Cs7  1  0.50189113  -0.00166743  0.75172152  1
  Cs  Cs8  1  0.24855218  0.25628958  -0.00012625  1
  Cs  Cs9  1  0.25203250  0.24682445  0.24815625  1
  Cs  Cs10  1  0.25343274  0.24477859  0.49903101  1
  Cs  Cs11  1  0.25073933  0.24836098  0.75410227  1
  Cs  Cs12  1  0.00081514  0.50592898  -0.00003905  1
  Cs  Cs13  1  0.00543524  0.49609770  0.24883650  1
  Cs  Cs14  1  0.00538960  0.49315119  0.49711772  1
  Cs  Cs15  1  0.00297998  0.49907269  0.75358957  1
  Cs  Cs16  1  0.74519603  0.25704441  0.99991620  1
  Cs  Cs17  1  0.74835551  0.24739581  0.25393415  1
  Cs  Cs18  1  0.74846376  0.24642303  0.49526258  1
  Cs  Cs19  1  0.74857184  0.25044663  0.74498617  1
  Cs  Cs20  1  0.49259197  0.50646967  -0.00011757  1
  Cs  Cs21  1  0.49497984  0.49978390  0.25177608  1
  Cs  Cs22  1  0.49714843  0.49760184  0.49542420  1
  Cs  Cs23  1  0.49432144  0.50146008  0.74890010  1
  Cs  Cs24  1  0.24773751  0.75624521  -0.00041204  1
  Cs  Cs25  1  0.24917401  0.74744156  0.25367193  1
  Cs  Cs26  1  0.24859969  0.74623668  0.49515956  1
  Cs  Cs27  1  0.24934343  0.75084960  0.74533860  1
  Cs  Cs28  1  0.74939713  0.75618956  -0.00036536  1
  Cs  Cs29  1  0.75312414  0.74629244  0.24855581  1
  Cs  Cs30  1  0.75441211  0.74457104  0.49959909  1
  Cs  Cs31  1  0.75297890  0.74803110  0.75470552  1
  I  I32  1  0.01279771  0.24543107  -0.00010994  1
  I  I33  1  -0.01658612  0.25462884  0.24889467  1
  I  I34  1  0.01559256  0.24477844  0.49849150  1
  I  I35  1  -0.01413215  0.25497544  0.74929939  1
  I  I36  1  0.50623828  0.26377353  0.99954389  1
  I  I37  1  0.49157468  0.23390420  0.24975902  1
  I  I38  1  0.50649457  0.26310644  0.49872733  1
  I  I39  1  0.49273807  0.23636515  0.74917156  1
  I  I40  1  0.24778003  0.49409319  -0.00040394  1
  I  I41  1  0.25206860  0.50767261  0.24928916  1
  I  I42  1  0.24806310  0.48935435  0.49895974  1
  I  I43  1  0.25091926  0.50749227  0.74954072  1
  I  I44  1  0.00862544  0.76651796  -0.00055719  1
  I  I45  1  0.99162432  0.73455242  0.24955214  1
  I  I46  1  0.00654881  0.76296025  0.49871162  1
  I  I47  1  0.99362444  0.73678723  0.74971187  1
  I  I48  1  0.72833882  0.49975134  -0.00022055  1
  I  I49  1  0.77105066  0.50018273  0.24932369  1
  I  I50  1  0.73055500  0.49935380  0.49890081  1
  I  I51  1  0.76863254  0.49929391  0.74976706  1
  I  I52  1  0.51297786  0.74587558  0.99934750  1
  I  I53  1  0.48423889  0.75386177  0.24968034  1
  I  I54  1  0.51650668  0.74298017  0.49870790  1
  I  I55  1  0.48631584  0.75448654  0.74885523  1
  I  I56  1  0.22771462  -0.00259342  -0.00034732  1
  I  I57  1  0.27118668  0.00109707  0.24976185  1
  I  I58  1  0.22963546  -0.00217155  0.49848467  1
  I  I59  1  0.26715499  0.00199215  0.74869918  1
  I  I60  1  0.74610694  -0.00591610  -0.00060967  1
  I  I61  1  0.75173309  0.00766540  0.24944371  1
  I  I62  1  0.74822088  -0.01069696  0.49893627  1
  I  I63  1  0.75078190  0.00767523  0.74927784  1
  I  I64  1  0.11199341  0.11446200  0.13485928  1
  I  I65  1  0.12728720  0.12703999  0.36300090  1
  I  I66  1  0.13848262  0.13891525  0.63194799  1
  I  I67  1  0.11165478  0.11480234  0.86618105  1
  I  I68  1  0.61130980  0.11296021  0.12236539  1
  I  I69  1  0.62722281  0.12548208  0.37753263  1
  I  I70  1  0.63888670  0.13807254  0.62029315  1
  I  I71  1  0.61199046  0.11436175  0.87721450  1
  I  I72  1  0.38556963  0.38600419  0.12738374  1
  I  I73  1  0.37126181  0.37052513  0.37009481  1
  I  I74  1  0.35911743  0.35894562  0.62802216  1
  I  I75  1  0.38466324  0.38598486  0.87206194  1
  I  I76  1  0.11426443  0.61544958  0.12213258  1
  I  I77  1  0.12741875  0.62571812  0.37716098  1
  I  I78  1  0.13952366  0.63867836  0.62057783  1
  I  I79  1  0.11456600  0.61579243  0.87803107  1
  I  I80  1  0.88495796  0.38688216  0.11416653  1
  I  I81  1  0.87234410  0.37158497  0.38454891  1
  I  I82  1  0.86106101  0.36047351  0.61410685  1
  I  I83  1  0.88482195  0.38662654  0.88496752  1
  I  I84  1  0.61384092  0.61430132  0.13493572  1
  I  I85  1  0.62789448  0.62666337  0.36279886  1
  I  I86  1  0.63977588  0.63822726  0.63389044  1
  I  I87  1  0.61400385  0.61480044  0.86507594  1
  I  I88  1  0.38523726  0.88602572  0.11511994  1
  I  I89  1  0.37303310  0.87117638  0.38461296  1
  I  I90  1  0.36135460  0.86022477  0.61421609  1
  I  I91  1  0.38463152  0.88630905  0.88211831  1
  I  I92  1  0.88585022  0.88794909  0.12732623  1
  I  I93  1  0.87208950  0.87135394  0.37052050  1
  I  I94  1  0.85973802  0.85915058  0.62813741  1
  I  I95  1  0.88513222  0.88760711  0.87226922  1
  I  I96  1  0.86025615  0.13824671  0.11937169  1
  I  I97  1  0.87705048  0.12194200  0.37933855  1
  I  I98  1  0.88835579  0.11053237  0.61910296  1
  I  I99  1  0.86016338  0.13893772  0.87931956  1
  I  I100  1  0.36194320  0.13590942  0.11421396  1
  I  I101  1  0.37831803  0.12055895  0.38676173  1
  I  I102  1  0.38907985  0.10972987  0.61305947  1
  I  I103  1  0.36212989  0.13563819  0.88499867  1
  I  I104  1  0.13485457  0.36497139  0.12977180  1
  I  I105  1  0.12281413  0.37580929  0.36808593  1
  I  I106  1  0.11014895  0.38924160  0.62916885  1
  I  I107  1  0.13418306  0.36557067  0.87074293  1
  I  I108  1  0.86463473  0.63684972  0.11392070  1
  I  I109  1  0.87817160  0.62123129  0.38596232  1
  I  I110  1  0.89022278  0.60943569  0.61470441  1
  I  I111  1  0.86472273  0.63588707  0.88519011  1
  I  I112  1  0.63506275  0.36315085  0.13590343  1
  I  I113  1  0.62205649  0.37650531  0.36328722  1
  I  I114  1  0.61057741  0.38773744  0.63309444  1
  I  I115  1  0.63496709  0.36367970  0.86419778  1
  I  I116  1  0.36289998  0.63694160  0.11982794  1
  I  I117  1  0.37733827  0.62127164  0.37954232  1
  I  I118  1  0.38872147  0.61011566  0.61909358  1
  I  I119  1  0.36297704  0.63713154  0.87864909  1
  I  I120  1  0.13493301  0.86484762  0.13707344  1
  I  I121  1  0.12219910  0.87668842  0.36269197  1
  I  I122  1  0.11067887  0.88790328  0.63316997  1
  I  I123  1  0.13487055  0.86523507  0.86296713  1
  I  I124  1  0.63587400  0.86351056  0.13039453  1
  I  I125  1  0.62331730  0.87547472  0.36820052  1
  I  I126  1  0.61053656  0.88840387  0.62848453  1
  I  I127  1  0.63455993  0.86522420  0.87014274  1
  Mg  Mg128  1  -0.00193493  0.25016269  0.12426137  1
  Mg  Mg129  1  0.00029500  0.24911027  0.37389399  1
  Mg  Mg130  1  0.00015730  0.24956623  0.62377122  1
  Mg  Mg131  1  -0.00220595  0.25059612  0.87447053  1
  Mg  Mg132  1  0.49921095  0.25000929  0.12459285  1
  Mg  Mg133  1  0.49929700  0.24827859  0.37419251  1
  Mg  Mg134  1  0.49924796  0.24871842  0.62404394  1
  Mg  Mg135  1  0.49922318  0.25034040  0.87435033  1
  Mg  Mg136  1  0.24912253  0.50056309  0.12442512  1
  Mg  Mg137  1  0.24983230  0.49811145  0.37433868  1
  Mg  Mg138  1  0.24951704  0.49854004  0.62426264  1
  Mg  Mg139  1  0.24906889  0.50113484  0.87428027  1
  Mg  Mg140  1  -0.00049716  0.75131664  0.12440019  1
  Mg  Mg141  1  -0.00029123  0.74864663  0.37405767  1
  Mg  Mg142  1  -0.00028357  0.74878637  0.62424793  1
  Mg  Mg143  1  -0.00036066  0.75147126  0.87454876  1
  Mg  Mg144  1  0.74871234  0.49985858  0.12463466  1
  Mg  Mg145  1  0.75025181  0.49941205  0.37410549  1
  Mg  Mg146  1  0.74988876  0.49938188  0.62427991  1
  Mg  Mg147  1  0.74835881  0.49968159  0.87462974  1
  Mg  Mg148  1  0.49892661  0.75038663  0.12443340  1
  Mg  Mg149  1  0.50052367  0.74881261  0.37419623  1
  Mg  Mg150  1  0.50040795  0.74887609  0.62388382  1
  Mg  Mg151  1  0.49881639  0.75046523  0.87406642  1
  Mg  Mg152  1  0.24827428  0.00013726  0.12452813  1
  Mg  Mg153  1  0.25030998  -0.00067488  0.37386368  1
  Mg  Mg154  1  0.24978128  -0.00078004  0.62366306  1
  Mg  Mg155  1  0.24788428  0.00018083  0.87443974  1
  Mg  Mg156  1  0.74869747  0.00082752  0.12427295  1
  Mg  Mg157  1  0.74975585  -0.00188204  0.37425340  1
  Mg  Mg158  1  0.74961695  -0.00146932  0.62419655  1
  Mg  Mg159  1  0.74888857  0.00155265  0.87420658  1
