# generated using pymatgen
data_CsMgCl3
_symmetry_space_group_name_H-M   'P 1'
_cell_length_a   14.50335688
_cell_length_b   14.50335688
_cell_length_c   20.51084400
_cell_angle_alpha   90.00000000
_cell_angle_beta   90.00000000
_cell_angle_gamma   90.00000000
_symmetry_Int_Tables_number   1
_chemical_formula_structural   CsMgCl3
_chemical_formula_sum   'Cs32 Mg32 Cl96'
_cell_volume   4314.40190310
_cell_formula_units_Z   32
loop_
 _symmetry_equiv_pos_site_id
 _symmetry_equiv_pos_as_xyz
  1  'x, y, z'
loop_
 _atom_site_type_symbol
 _atom_site_label
 _atom_site_symmetry_multiplicity
 _atom_site_fract_x
 _atom_site_fract_y
 _atom_site_fract_z
 _atom_site_occupancy
  Cl  Cl0  1  0.99981123  0.24982269  -0.00010078  1
  Cl  Cl1  1  -0.00071234  0.24967597  0.24975267  1
  Cl  Cl2  1  -0.00033535  0.24953476  0.49967854  1
  Cl  Cl3  1  -0.00035407  0.24956994  0.74982197  1
  Cl  Cl4  1  0.49971088  0.24974106  -0.00027417  1
  Cl  Cl5  1  0.49939557  0.24947185  0.24976195  1
  Cl  Cl6  1  0.49956031  0.24927321  0.49974411  1
  Cl  Cl7  1  0.49978934  0.24967151  0.74966952  1
  Cl  Cl8  1  0.25003660  0.49950957  0.99971982  1
  Cl  Cl9  1  0.24967665  0.49935394  0.24975550  1
  Cl  Cl10  1  0.24980624  0.49902110  0.49977609  1
  Cl  Cl11  1  0.24998429  0.49938729  0.74977541  1
  Cl  Cl12  1  -0.00024873  0.74982923  -0.00022135  1
  Cl  Cl13  1  -0.00028372  0.74955346  0.24973761  1
  Cl  Cl14  1  -0.00013427  0.74940077  0.49975787  1
  Cl  Cl15  1  0.00011894  0.74972164  0.74978555  1
  Cl  Cl16  1  0.74992392  0.50023914  -0.00025135  1
  Cl  Cl17  1  0.74952781  0.49984152  0.24974695  1
  Cl  Cl18  1  0.74987179  0.49953098  0.49983413  1
  Cl  Cl19  1  0.75019967  0.49992090  0.74984883  1
  Cl  Cl20  1  0.49971699  0.74968699  0.99965828  1
  Cl  Cl21  1  0.49974935  0.74953765  0.24978645  1
  Cl  Cl22  1  0.49987732  0.74917191  0.49973799  1
  Cl  Cl23  1  0.50005720  0.74974275  0.74977239  1
  Cl  Cl24  1  0.24952174  -0.00029353  -0.00032376  1
  Cl  Cl25  1  0.24958236  -0.00091297  0.24971563  1
  Cl  Cl26  1  0.24965244  -0.00090538  0.49974207  1
  Cl  Cl27  1  0.24961664  0.99949951  0.74970765  1
  Cl  Cl28  1  0.74948215  0.00014222  -0.00016598  1
  Cl  Cl29  1  0.74944369  0.99976044  0.24978214  1
  Cl  Cl30  1  0.74960560  0.99949219  0.49978480  1
  Cl  Cl31  1  0.74953521  -0.00004538  0.74976952  1
  Cl  Cl32  1  0.12445643  0.12450510  0.12488311  1
  Cl  Cl33  1  0.12446109  0.12431201  0.37467275  1
  Cl  Cl34  1  0.12446798  0.12420926  0.62461858  1
  Cl  Cl35  1  0.12437202  0.12458941  0.87474595  1
  Cl  Cl36  1  0.62447567  0.12489436  0.12483845  1
  Cl  Cl37  1  0.62446156  0.12445091  0.37474830  1
  Cl  Cl38  1  0.62461453  0.12451777  0.62473725  1
  Cl  Cl39  1  0.62448435  0.12487482  0.87467866  1
  Cl  Cl40  1  0.37459768  0.37449508  0.12466191  1
  Cl  Cl41  1  0.37453412  0.37413566  0.37475184  1
  Cl  Cl42  1  0.37491075  0.37444429  0.62477425  1
  Cl  Cl43  1  0.37506189  0.37456206  0.87468212  1
  Cl  Cl44  1  0.12465742  0.62443189  0.12473113  1
  Cl  Cl45  1  0.12470028  0.62432508  0.37477768  1
  Cl  Cl46  1  0.12494028  0.62432130  0.62475053  1
  Cl  Cl47  1  0.12520968  0.62465422  0.87474707  1
  Cl  Cl48  1  0.87459976  0.37499186  0.12463268  1
  Cl  Cl49  1  0.87453566  0.37449683  0.37471003  1
  Cl  Cl50  1  0.87502692  0.37455710  0.62475417  1
  Cl  Cl51  1  0.87520283  0.37528347  0.87490483  1
  Cl  Cl52  1  0.62465929  0.62490058  0.12468253  1
  Cl  Cl53  1  0.62472697  0.62444360  0.37473107  1
  Cl  Cl54  1  0.62504463  0.62455849  0.62486714  1
  Cl  Cl55  1  0.62524616  0.62520630  0.87467055  1
  Cl  Cl56  1  0.37439975  0.87443083  0.12463166  1
  Cl  Cl57  1  0.37451284  0.87408675  0.37474078  1
  Cl  Cl58  1  0.37481944  0.87429316  0.62471493  1
  Cl  Cl59  1  0.37456496  0.87459550  0.87469803  1
  Cl  Cl60  1  0.87446808  0.87490852  0.12477708  1
  Cl  Cl61  1  0.87451881  0.87446726  0.37478370  1
  Cl  Cl62  1  0.87479630  0.87453997  0.62483888  1
  Cl  Cl63  1  0.87480098  0.87519404  0.87477373  1
  Cl  Cl64  1  0.87434725  0.12499484  0.12474564  1
  Cl  Cl65  1  0.87440227  0.12454661  0.37477115  1
  Cl  Cl66  1  0.87455402  0.12472899  0.62466937  1
  Cl  Cl67  1  0.87434099  0.12517836  0.87488824  1
  Cl  Cl68  1  0.37452230  0.12447786  0.12470473  1
  Cl  Cl69  1  0.37457783  0.12409022  0.37472796  1
  Cl  Cl70  1  0.37459615  0.12444110  0.62468337  1
  Cl  Cl71  1  0.37452219  0.12468984  0.87464829  1
  Cl  Cl72  1  0.12469922  0.37449958  0.12486210  1
  Cl  Cl73  1  0.12459368  0.37438136  0.37463659  1
  Cl  Cl74  1  0.12498963  0.37418993  0.62482407  1
  Cl  Cl75  1  0.12507862  0.37454347  0.87473162  1
  Cl  Cl76  1  0.87450782  0.62493375  0.12474642  1
  Cl  Cl77  1  0.87467880  0.62450125  0.37478195  1
  Cl  Cl78  1  0.87505039  0.62446451  0.62477561  1
  Cl  Cl79  1  0.87518819  0.62507064  0.87466566  1
  Cl  Cl80  1  0.62442499  0.37491970  0.12470012  1
  Cl  Cl81  1  0.62455734  0.37450008  0.37470954  1
  Cl  Cl82  1  0.62497673  0.37447783  0.62472072  1
  Cl  Cl83  1  0.62510576  0.37488201  0.87466222  1
  Cl  Cl84  1  0.37472789  0.62449867  0.12475118  1
  Cl  Cl85  1  0.37475249  0.62410996  0.37472825  1
  Cl  Cl86  1  0.37498277  0.62427105  0.62472368  1
  Cl  Cl87  1  0.37521464  0.62439527  0.87462622  1
  Cl  Cl88  1  0.12449265  0.87447881  0.12464185  1
  Cl  Cl89  1  0.12453176  0.87439167  0.37473125  1
  Cl  Cl90  1  0.12489323  0.87424860  0.62476548  1
  Cl  Cl91  1  0.12479144  0.87458943  0.87478552  1
  Cl  Cl92  1  0.62436111  0.87490230  0.12466769  1
  Cl  Cl93  1  0.62462145  0.87443890  0.37476138  1
  Cl  Cl94  1  0.62474225  0.87446663  0.62467537  1
  Cl  Cl95  1  0.62460064  0.87507816  0.87478659  1
  Cs  Cs96  1  -0.00057561  -0.00014625  -0.00012523  1
  Cs  Cs97  1  0.99921102  -0.00051828  0.24979967  1
  Cs  Cs98  1  0.99944857  0.99930822  0.49982243  1
  Cs  Cs99  1  -0.00059136  -0.00031889  0.74981322  1
  Cs  Cs100  1  0.49929310  -0.00019858  0.99970399  1
  Cs  Cs101  1  0.49939495  0.99928173  0.24973751  1
  Cs  Cs102  1  0.49955014  0.99908610  0.49982909  1
  Cs  Cs103  1  0.49947227  -0.00033360  0.74977183  1
  Cs  Cs104  1  0.24964930  0.24939871  -0.00018707  1
  Cs  Cs105  1  0.24936679  0.24915895  0.24982858  1
  Cs  Cs106  1  0.24958939  0.24900077  0.49984079  1
  Cs  Cs107  1  0.24968863  0.24922733  0.74982325  1
  Cs  Cs108  1  0.00016281  0.49984673  -0.00020898  1
  Cs  Cs109  1  -0.00062837  0.49951056  0.24984272  1
  Cs  Cs110  1  0.99983394  0.49921987  0.49980202  1
  Cs  Cs111  1  0.00025276  0.49946742  0.74991911  1
  Cs  Cs112  1  0.74960702  0.25034075  -0.00016537  1
  Cs  Cs113  1  0.74920055  0.24978664  0.24978883  1
  Cs  Cs114  1  0.74945233  0.24949737  0.49982047  1
  Cs  Cs115  1  0.74962485  0.24989527  0.74975955  1
  Cs  Cs116  1  0.50011558  0.49970131  -0.00027796  1
  Cs  Cs117  1  0.49951981  0.49943650  0.24982565  1
  Cs  Cs118  1  0.49980845  0.49911641  0.49975405  1
  Cs  Cs119  1  0.50031648  0.49970609  0.74974732  1
  Cs  Cs120  1  0.24982883  0.74933430  -0.00026103  1
  Cs  Cs121  1  0.24957105  0.74920395  0.24981395  1
  Cs  Cs122  1  0.24976732  0.74895395  0.49981321  1
  Cs  Cs123  1  0.24999215  0.74925426  0.74977823  1
  Cs  Cs124  1  0.74972226  0.75041034  -0.00020252  1
  Cs  Cs125  1  0.74940068  0.74974667  0.24980644  1
  Cs  Cs126  1  0.74982457  0.74928739  0.49985082  1
  Cs  Cs127  1  0.75012265  0.75006044  0.74984891  1
  Mg  Mg128  1  -0.00050427  0.24973389  0.12484592  1
  Mg  Mg129  1  0.99935894  0.24935001  0.37479178  1
  Mg  Mg130  1  -0.00035991  0.24936794  0.62475052  1
  Mg  Mg131  1  -0.00028190  0.24982891  0.87480220  1
  Mg  Mg132  1  0.49948707  0.24963638  0.12473977  1
  Mg  Mg133  1  0.49934099  0.24919767  0.37469206  1
  Mg  Mg134  1  0.49967631  0.24939522  0.62474221  1
  Mg  Mg135  1  0.49981833  0.24987728  0.87474392  1
  Mg  Mg136  1  0.24962508  0.49941543  0.12478338  1
  Mg  Mg137  1  0.24951992  0.49913489  0.37473131  1
  Mg  Mg138  1  0.24989637  0.49905300  0.62476188  1
  Mg  Mg139  1  0.25008539  0.49961074  0.87472996  1
  Mg  Mg140  1  -0.00045216  0.74965013  0.12485709  1
  Mg  Mg141  1  -0.00050018  0.74933997  0.37482099  1
  Mg  Mg142  1  0.00003082  0.74936137  0.62485525  1
  Mg  Mg143  1  -0.00001451  0.74987733  0.87481710  1
  Mg  Mg144  1  0.74958881  0.49988560  0.12470499  1
  Mg  Mg145  1  0.74952770  0.49937917  0.37480005  1
  Mg  Mg146  1  0.75006073  0.49962389  0.62479401  1
  Mg  Mg147  1  0.75007449  0.50009507  0.87476435  1
  Mg  Mg148  1  0.49956235  0.74962814  0.12466806  1
  Mg  Mg149  1  0.49960512  0.74920547  0.37470216  1
  Mg  Mg150  1  0.49989941  0.74927947  0.62475537  1
  Mg  Mg151  1  0.49989111  0.74979108  0.87471270  1
  Mg  Mg152  1  0.24940650  -0.00060987  0.12468805  1
  Mg  Mg153  1  0.24942940  -0.00097419  0.37473095  1
  Mg  Mg154  1  0.24965331  -0.00081449  0.62472282  1
  Mg  Mg155  1  0.24961611  -0.00035606  0.87473638  1
  Mg  Mg156  1  0.74934077  -0.00005133  0.12481823  1
  Mg  Mg157  1  0.74937480  -0.00057761  0.37477839  1
  Mg  Mg158  1  0.74958449  -0.00052827  0.62479255  1
  Mg  Mg159  1  0.74960668  0.00009557  0.87490383  1
