# generated using pymatgen
data_CsMgF3
_symmetry_space_group_name_H-M   'P 1'
_cell_length_a   12.01538046
_cell_length_b   12.01538046
_cell_length_c   16.99231500
_cell_angle_alpha   90.00000000
_cell_angle_beta   90.00000000
_cell_angle_gamma   90.00000000
_symmetry_Int_Tables_number   1
_chemical_formula_structural   CsMgF3
_chemical_formula_sum   'Cs32 Mg32 F96'
_cell_volume   2453.16976954
_cell_formula_units_Z   32
loop_
 _symmetry_equiv_pos_site_id
 _symmetry_equiv_pos_as_xyz
  1  'x, y, z'
loop_
 _atom_site_type_symbol
 _atom_site_label
 _atom_site_symmetry_multiplicity
 _atom_site_fract_x
 _atom_site_fract_y
 _atom_site_fract_z
 _atom_site_occupancy
  Cs  Cs0  1  0.00018146  -0.00031997  -0.00041550  1
  Cs  Cs1  1  0.00028682  -0.00017769  0.24944661  1
  Cs  Cs2  1  0.00029254  -0.00050782  0.49959039  1
  Cs  Cs3  1  0.00018649  -0.00074132  0.74969299  1
  Cs  Cs4  1  0.50023816  0.00003214  -0.00044244  1
  Cs  Cs5  1  0.50027108  0.00014656  0.24956088  1
  Cs  Cs6  1  0.50027637  0.99959743  0.49950312  1
  Cs  Cs7  1  0.50017719  -0.00042093  0.74957835  1
  Cs  Cs8  1  0.25084111  0.24983975  0.99952562  1
  Cs  Cs9  1  0.25085229  0.24997449  0.24952022  1
  Cs  Cs10  1  0.25073980  0.24939180  0.49955618  1
  Cs  Cs11  1  0.25058470  0.24931527  0.74959803  1
  Cs  Cs12  1  0.00077005  0.49959055  -0.00038239  1
  Cs  Cs13  1  0.00094289  0.49980137  0.24945546  1
  Cs  Cs14  1  0.00070991  0.49935584  0.49950580  1
  Cs  Cs15  1  0.00057782  0.49928828  0.74959111  1
  Cs  Cs16  1  0.75063413  0.24989402  -0.00042813  1
  Cs  Cs17  1  0.75092938  0.24997498  0.24952951  1
  Cs  Cs18  1  0.75072639  0.24956132  0.49947593  1
  Cs  Cs19  1  0.75062968  0.24948071  0.74948826  1
  Cs  Cs20  1  0.50080028  0.50007597  -0.00047306  1
  Cs  Cs21  1  0.50092081  0.50015219  0.24949110  1
  Cs  Cs22  1  0.50072177  0.49959432  0.49951853  1
  Cs  Cs23  1  0.50059501  0.49951830  0.74954212  1
  Cs  Cs24  1  0.25020992  0.74988592  -0.00046992  1
  Cs  Cs25  1  0.25027263  0.74989534  0.24955304  1
  Cs  Cs26  1  0.25026246  0.74943604  0.49955576  1
  Cs  Cs27  1  0.25025291  0.74928661  0.74956947  1
  Cs  Cs28  1  0.75019919  0.74992299  -0.00035817  1
  Cs  Cs29  1  0.75029385  0.74996999  0.24948473  1
  Cs  Cs30  1  0.75034450  0.74959055  0.49939733  1
  Cs  Cs31  1  0.75023079  0.74954443  0.74958346  1
  F  F32  1  0.00069781  0.24951238  0.99955991  1
  F  F33  1  0.00096706  0.24973835  0.24950697  1
  F  F34  1  0.00076708  0.24940169  0.49960189  1
  F  F35  1  0.00053278  0.24927844  0.74955457  1
  F  F36  1  0.50084120  0.25004302  -0.00045350  1
  F  F37  1  0.50090268  0.25016722  0.24953382  1
  F  F38  1  0.50076928  0.24958076  0.49948758  1
  F  F39  1  0.50069465  0.24958570  0.74955229  1
  F  F40  1  0.25073850  0.49992835  -0.00039156  1
  F  F41  1  0.25106738  0.49989972  0.24950583  1
  F  F42  1  0.25078468  0.49937382  0.49960034  1
  F  F43  1  0.25065332  0.49935185  0.74960656  1
  F  F44  1  0.00028887  0.74953958  -0.00034797  1
  F  F45  1  0.00034127  0.74982976  0.24952151  1
  F  F46  1  0.00035608  0.74936549  0.49953842  1
  F  F47  1  0.00008995  0.74919162  0.74967596  1
  F  F48  1  0.75078808  0.49987195  -0.00042673  1
  F  F49  1  0.75093916  0.49993032  0.24952082  1
  F  F50  1  0.75073573  0.49953708  0.49946898  1
  F  F51  1  0.75066393  0.49958852  0.74959706  1
  F  F52  1  0.50022271  0.75011556  -0.00039411  1
  F  F53  1  0.50026431  0.75026181  0.24958166  1
  F  F54  1  0.50038189  0.74959249  0.49944660  1
  F  F55  1  0.50031139  0.74946293  0.74962862  1
  F  F56  1  0.25024410  -0.00024083  -0.00039655  1
  F  F57  1  0.25025341  0.00002591  0.24948632  1
  F  F58  1  0.25034946  -0.00067072  0.49960904  1
  F  F59  1  0.25014695  0.99920815  0.74960235  1
  F  F60  1  0.75017646  -0.00007351  -0.00036000  1
  F  F61  1  0.75040800  0.00001796  0.24960631  1
  F  F62  1  0.75029509  -0.00049792  0.49954544  1
  F  F63  1  0.75024188  0.99935867  0.74964803  1
  F  F64  1  0.12555758  0.12495774  0.12447084  1
  F  F65  1  0.12540142  0.12462358  0.37459745  1
  F  F66  1  0.12541840  0.12426570  0.62466981  1
  F  F67  1  0.12546095  0.12444458  0.87462296  1
  F  F68  1  0.62546758  0.12508673  0.12461513  1
  F  F69  1  0.62549579  0.12501178  0.37448877  1
  F  F70  1  0.62532249  0.12431501  0.62454960  1
  F  F71  1  0.62544563  0.12482241  0.87453996  1
  F  F72  1  0.37590044  0.37514444  0.12449840  1
  F  F73  1  0.37591336  0.37482671  0.37452411  1
  F  F74  1  0.37552756  0.37426180  0.62462688  1
  F  F75  1  0.37560571  0.37472456  0.87462809  1
  F  F76  1  0.12557766  0.62487450  0.12463266  1
  F  F77  1  0.12555186  0.62453960  0.37451635  1
  F  F78  1  0.12528549  0.62426300  0.62462309  1
  F  F79  1  0.12544872  0.62434210  0.87460108  1
  F  F80  1  0.87587941  0.37484873  0.12453404  1
  F  F81  1  0.87596704  0.37475200  0.37443179  1
  F  F82  1  0.87555751  0.37439003  0.62454422  1
  F  F83  1  0.87564272  0.37456372  0.87459467  1
  F  F84  1  0.62547126  0.62514401  0.12457117  1
  F  F85  1  0.62552608  0.62492518  0.37443044  1
  F  F86  1  0.62541955  0.62444446  0.62450768  1
  F  F87  1  0.62547776  0.62486733  0.87462433  1
  F  F88  1  0.37527007  0.87510848  0.12459916  1
  F  F89  1  0.37517909  0.87487023  0.37448621  1
  F  F90  1  0.37521030  0.87430248  0.62459062  1
  F  F91  1  0.37509994  0.87478230  0.87459710  1
  F  F92  1  0.87522147  0.87486367  0.12452108  1
  F  F93  1  0.87529007  0.87477211  0.37454218  1
  F  F94  1  0.87518535  0.87433118  0.62452582  1
  F  F95  1  0.87500283  0.87452740  0.87472576  1
  F  F96  1  0.87540969  0.12489730  0.12456783  1
  F  F97  1  0.87555296  0.12474574  0.37455176  1
  F  F98  1  0.87533922  0.12431682  0.62454265  1
  F  F99  1  0.87533975  0.12457813  0.87463234  1
  F  F100  1  0.37551771  0.12517775  0.12453408  1
  F  F101  1  0.37541183  0.12482412  0.37453229  1
  F  F102  1  0.37541323  0.12437353  0.62453764  1
  F  F103  1  0.37543656  0.12468180  0.87453763  1
  F  F104  1  0.12587723  0.37486847  0.12450243  1
  F  F105  1  0.12590441  0.37464372  0.37452157  1
  F  F106  1  0.12558304  0.37431750  0.62462236  1
  F  F107  1  0.12558954  0.37444346  0.87464078  1
  F  F108  1  0.87550889  0.62487309  0.12452857  1
  F  F109  1  0.87558332  0.62478612  0.37445851  1
  F  F110  1  0.87530161  0.62445034  0.62449568  1
  F  F111  1  0.87543363  0.62455398  0.87472408  1
  F  F112  1  0.62587000  0.37514578  0.12457512  1
  F  F113  1  0.62593744  0.37495782  0.37452778  1
  F  F114  1  0.62560386  0.37442013  0.62452354  1
  F  F115  1  0.62568651  0.37481073  0.87455700  1
  F  F116  1  0.37559267  0.62518652  0.12450725  1
  F  F117  1  0.37554332  0.62482553  0.37450775  1
  F  F118  1  0.37539194  0.62435114  0.62450903  1
  F  F119  1  0.37545518  0.62469781  0.87458102  1
  F  F120  1  0.12525666  0.87482789  0.12460132  1
  F  F121  1  0.12517654  0.87466712  0.37451702  1
  F  F122  1  0.12508449  0.87428908  0.62465774  1
  F  F123  1  0.12501693  0.87439203  0.87462337  1
  F  F124  1  0.62522141  0.87512989  0.12466246  1
  F  F125  1  0.62526595  0.87500989  0.37448852  1
  F  F126  1  0.62521768  0.87434219  0.62462006  1
  F  F127  1  0.62508254  0.87479697  0.87464469  1
  Mg  Mg128  1  0.00086040  0.24985511  0.12456424  1
  Mg  Mg129  1  0.00088961  0.24968526  0.37455137  1
  Mg  Mg130  1  0.00056292  0.24922867  0.62462653  1
  Mg  Mg131  1  0.00053003  0.24946071  0.87467876  1
  Mg  Mg132  1  0.50081713  0.25014124  0.12460450  1
  Mg  Mg133  1  0.50081453  0.24990761  0.37456565  1
  Mg  Mg134  1  0.50058373  0.24935427  0.62459179  1
  Mg  Mg135  1  0.50077752  0.24975001  0.87457983  1
  Mg  Mg136  1  0.25090731  0.50000610  0.12457468  1
  Mg  Mg137  1  0.25091282  0.49970169  0.37457704  1
  Mg  Mg138  1  0.25051048  0.49923455  0.62458604  1
  Mg  Mg139  1  0.25064203  0.49959867  0.87464270  1
  Mg  Mg140  1  0.00043403  0.74983273  0.12463725  1
  Mg  Mg141  1  0.00037458  0.74964099  0.37460577  1
  Mg  Mg142  1  0.00015799  0.74924300  0.62461468  1
  Mg  Mg143  1  0.00020768  0.74936754  0.87471064  1
  Mg  Mg144  1  0.75084589  0.49994724  0.12455649  1
  Mg  Mg145  1  0.75083800  0.49982789  0.37448130  1
  Mg  Mg146  1  0.75059380  0.49950177  0.62455745  1
  Mg  Mg147  1  0.75074320  0.49974273  0.87462868  1
  Mg  Mg148  1  0.50030274  0.75018702  0.12462231  1
  Mg  Mg149  1  0.50042649  0.74991975  0.37455707  1
  Mg  Mg150  1  0.50031695  0.74937160  0.62461842  1
  Mg  Mg151  1  0.50034042  0.74979531  0.87464105  1
  Mg  Mg152  1  0.25036731  0.00005128  0.12459094  1
  Mg  Mg153  1  0.25027710  -0.00031996  0.37457055  1
  Mg  Mg154  1  0.25024026  0.99917151  0.62465429  1
  Mg  Mg155  1  0.25024427  -0.00051569  0.87465244  1
  Mg  Mg156  1  0.75030315  0.00005108  0.12463170  1
  Mg  Mg157  1  0.75049955  -0.00020609  0.37456485  1
  Mg  Mg158  1  0.75021876  -0.00075368  0.62458036  1
  Mg  Mg159  1  0.75022996  0.99965967  0.87465539  1
