# generated using pymatgen
data_CsMgBr3
_symmetry_space_group_name_H-M   'P 1'
_cell_length_a   15.40136694
_cell_length_b   15.40136694
_cell_length_c   21.78082200
_cell_angle_alpha   90.00000000
_cell_angle_beta   90.00000000
_cell_angle_gamma   90.00000000
_symmetry_Int_Tables_number   1
_chemical_formula_structural   CsMgBr3
_chemical_formula_sum   'Cs32 Mg32 Br96'
_cell_volume   5166.45679431
_cell_formula_units_Z   32
loop_
 _symmetry_equiv_pos_site_id
 _symmetry_equiv_pos_as_xyz
  1  'x, y, z'
loop_
 _atom_site_type_symbol
 _atom_site_label
 _atom_site_symmetry_multiplicity
 _atom_site_fract_x
 _atom_site_fract_y
 _atom_site_fract_z
 _atom_site_occupancy
  Br  Br0  1  -0.00007907  0.24999486  -0.00034352  1
  Br  Br1  1  0.99929813  0.24985382  0.24965432  1
  Br  Br2  1  0.00004094  0.24984850  0.49968746  1
  Br  Br3  1  0.99946752  0.24979360  0.74968136  1
  Br  Br4  1  0.49985811  0.25002465  -0.00031092  1
  Br  Br5  1  0.49949994  0.24972714  0.24970181  1
  Br  Br6  1  0.49989292  0.24994303  0.49974396  1
  Br  Br7  1  0.49940319  0.25034166  0.74970388  1
  Br  Br8  1  0.24877158  0.49994809  -0.00029270  1
  Br  Br9  1  0.25012052  0.49969465  0.24967597  1
  Br  Br10  1  0.24915701  0.50015994  0.49958791  1
  Br  Br11  1  0.25007798  0.50007530  0.74968288  1
  Br  Br12  1  -0.00014527  0.74977155  -0.00024984  1
  Br  Br13  1  -0.00073055  0.75026106  0.24975199  1
  Br  Br14  1  0.99956178  0.74971289  0.49964744  1
  Br  Br15  1  0.99912420  0.75011350  0.74966422  1
  Br  Br16  1  0.74953005  0.50001971  0.99974009  1
  Br  Br17  1  0.74964046  0.50006322  0.24974209  1
  Br  Br18  1  0.74947330  0.50019566  0.49970242  1
  Br  Br19  1  0.74981851  0.49996629  0.74964463  1
  Br  Br20  1  0.49978350  0.74999822  -0.00031710  1
  Br  Br21  1  0.49910661  0.74990039  0.24962729  1
  Br  Br22  1  0.49962704  0.75026571  0.49968286  1
  Br  Br23  1  0.49906437  0.74999993  0.74958425  1
  Br  Br24  1  0.24931700  0.99984379  0.99959314  1
  Br  Br25  1  0.24997185  -0.00017597  0.24969794  1
  Br  Br26  1  0.24926369  0.00035537  0.49976764  1
  Br  Br27  1  0.24958971  -0.00014257  0.74964671  1
  Br  Br28  1  0.74929966  0.99973668  0.99970929  1
  Br  Br29  1  0.74981382  0.00004217  0.24967144  1
  Br  Br30  1  0.74866600  0.00002019  0.49969295  1
  Br  Br31  1  0.74982187  -0.00004821  0.74987237  1
  Br  Br32  1  0.12489889  0.12493382  0.12491226  1
  Br  Br33  1  0.12492926  0.12507677  0.37481262  1
  Br  Br34  1  0.12477598  0.12500441  0.62491016  1
  Br  Br35  1  0.12482099  0.12499120  0.87487964  1
  Br  Br36  1  0.62490569  0.12504667  0.12488074  1
  Br  Br37  1  0.62485476  0.12508782  0.37478604  1
  Br  Br38  1  0.62475705  0.12498647  0.62499631  1
  Br  Br39  1  0.62473591  0.12501153  0.87483513  1
  Br  Br40  1  0.37483146  0.37491867  0.12475931  1
  Br  Br41  1  0.37484290  0.37499829  0.37496788  1
  Br  Br42  1  0.37487124  0.37508169  0.62470142  1
  Br  Br43  1  0.37487843  0.37504632  0.87495423  1
  Br  Br44  1  0.12484693  0.62507670  0.12494140  1
  Br  Br45  1  0.12482185  0.62505823  0.37472912  1
  Br  Br46  1  0.12478906  0.62501794  0.62491942  1
  Br  Br47  1  0.12475870  0.62503328  0.87469987  1
  Br  Br48  1  0.87481312  0.37501059  0.12483069  1
  Br  Br49  1  0.87477787  0.37499099  0.37494533  1
  Br  Br50  1  0.87485417  0.37498727  0.62480187  1
  Br  Br51  1  0.87490966  0.37503021  0.87490425  1
  Br  Br52  1  0.62482705  0.62499557  0.12488780  1
  Br  Br53  1  0.62487053  0.62509560  0.37487825  1
  Br  Br54  1  0.62484625  0.62504794  0.62486542  1
  Br  Br55  1  0.62479441  0.62500507  0.87479797  1
  Br  Br56  1  0.37477427  0.87496100  0.12478663  1
  Br  Br57  1  0.37475975  0.87505973  0.37494257  1
  Br  Br58  1  0.37478023  0.87510700  0.62480204  1
  Br  Br59  1  0.37488953  0.87506585  0.87489247  1
  Br  Br60  1  0.87484471  0.87501866  0.12481024  1
  Br  Br61  1  0.87478554  0.87495368  0.37497227  1
  Br  Br62  1  0.87482550  0.87508255  0.62479028  1
  Br  Br63  1  0.87492690  0.87499927  0.87496208  1
  Br  Br64  1  0.87487479  0.12494541  0.12478161  1
  Br  Br65  1  0.87488799  0.12485868  0.37494450  1
  Br  Br66  1  0.87476679  0.12492917  0.62478959  1
  Br  Br67  1  0.87481644  0.12496059  0.87490735  1
  Br  Br68  1  0.37487186  0.12490465  0.12475979  1
  Br  Br69  1  0.37486138  0.12492053  0.37490413  1
  Br  Br70  1  0.37481400  0.12499199  0.62487728  1
  Br  Br71  1  0.37479977  0.12496627  0.87486832  1
  Br  Br72  1  0.12483071  0.37489718  0.12498163  1
  Br  Br73  1  0.12476904  0.37496814  0.37478300  1
  Br  Br74  1  0.12491204  0.37500933  0.62491779  1
  Br  Br75  1  0.12487179  0.37492732  0.87474194  1
  Br  Br76  1  0.87480408  0.62497985  0.12491137  1
  Br  Br77  1  0.87486535  0.62493160  0.37486090  1
  Br  Br78  1  0.87481922  0.62498231  0.62481333  1
  Br  Br79  1  0.87480557  0.62502142  0.87489879  1
  Br  Br80  1  0.62481601  0.37496063  0.12489480  1
  Br  Br81  1  0.62474576  0.37506707  0.37485066  1
  Br  Br82  1  0.62489654  0.37491818  0.62490048  1
  Br  Br83  1  0.62487114  0.37496710  0.87483165  1
  Br  Br84  1  0.37481617  0.62486710  0.12483372  1
  Br  Br85  1  0.37484031  0.62492616  0.37492319  1
  Br  Br86  1  0.37485776  0.62489107  0.62478357  1
  Br  Br87  1  0.37480379  0.62495864  0.87498411  1
  Br  Br88  1  0.12484019  0.87499755  0.12494271  1
  Br  Br89  1  0.12476021  0.87493416  0.37486254  1
  Br  Br90  1  0.12488270  0.87489675  0.62484019  1
  Br  Br91  1  0.12482162  0.87488023  0.87481876  1
  Br  Br92  1  0.62482732  0.87492900  0.12490417  1
  Br  Br93  1  0.62473193  0.87495368  0.37470031  1
  Br  Br94  1  0.62490210  0.87485125  0.62495355  1
  Br  Br95  1  0.62483701  0.87484058  0.87481480  1
  Cs  Cs96  1  -0.00040439  0.99980931  -0.00017150  1
  Cs  Cs97  1  -0.00024117  -0.00002415  0.24976078  1
  Cs  Cs98  1  -0.00069145  -0.00009187  0.49979739  1
  Cs  Cs99  1  0.99957413  0.99991287  0.74969066  1
  Cs  Cs100  1  0.49952642  -0.00009844  -0.00037573  1
  Cs  Cs101  1  0.49965983  -0.00010794  0.24965480  1
  Cs  Cs102  1  0.49933567  -0.00003383  0.49977426  1
  Cs  Cs103  1  0.49947919  0.00009271  0.74983584  1
  Cs  Cs104  1  0.24970642  0.24983523  -0.00016284  1
  Cs  Cs105  1  0.24949002  0.24981400  0.24986496  1
  Cs  Cs106  1  0.24997115  0.25012005  0.49978119  1
  Cs  Cs107  1  0.24958029  0.24998965  0.74982825  1
  Cs  Cs108  1  -0.00057097  0.49973988  -0.00013416  1
  Cs  Cs109  1  -0.00041161  0.49995254  0.24979583  1
  Cs  Cs110  1  0.99939089  0.49973512  0.49982796  1
  Cs  Cs111  1  -0.00006963  0.50005516  0.74984302  1
  Cs  Cs112  1  0.74965256  0.24982043  -0.00023461  1
  Cs  Cs113  1  0.74946005  0.24978288  0.24975320  1
  Cs  Cs114  1  0.74987797  0.25000292  0.49989410  1
  Cs  Cs115  1  0.74952479  0.24985772  0.74986287  1
  Cs  Cs116  1  0.49945300  0.50013377  0.99983185  1
  Cs  Cs117  1  0.49974340  0.49982932  0.24981687  1
  Cs  Cs118  1  0.49940676  0.50009722  0.49978536  1
  Cs  Cs119  1  0.49985557  0.49998958  0.74955806  1
  Cs  Cs120  1  0.24953340  0.74974211  -0.00014020  1
  Cs  Cs121  1  0.24939861  0.74969673  0.24983397  1
  Cs  Cs122  1  0.24942913  0.75018068  0.49984998  1
  Cs  Cs123  1  0.24933705  0.74997543  0.74988945  1
  Cs  Cs124  1  0.74962608  0.74993152  -0.00010507  1
  Cs  Cs125  1  0.74934499  0.75006467  0.24982445  1
  Cs  Cs126  1  0.74948945  0.75012508  0.49981217  1
  Cs  Cs127  1  0.74936735  0.74990916  0.74983395  1
  Mg  Mg128  1  0.99982770  0.24993130  0.12467884  1
  Mg  Mg129  1  -0.00022338  0.24990325  0.37471930  1
  Mg  Mg130  1  -0.00021837  0.25000955  0.62472149  1
  Mg  Mg131  1  -0.00020340  0.24989264  0.87470266  1
  Mg  Mg132  1  0.49980574  0.24996400  0.12476350  1
  Mg  Mg133  1  0.49976207  0.24989585  0.37474943  1
  Mg  Mg134  1  0.49980028  0.25003735  0.62475633  1
  Mg  Mg135  1  0.49974196  0.25000111  0.87476211  1
  Mg  Mg136  1  0.24979218  0.49991591  0.12476137  1
  Mg  Mg137  1  0.24974127  0.49994030  0.37472717  1
  Mg  Mg138  1  0.24977731  0.50001219  0.62473684  1
  Mg  Mg139  1  0.24978455  0.49992688  0.87476768  1
  Mg  Mg140  1  -0.00023907  0.75000616  0.12480723  1
  Mg  Mg141  1  -0.00030739  0.74993027  0.37475172  1
  Mg  Mg142  1  -0.00030713  0.74995605  0.62474508  1
  Mg  Mg143  1  -0.00028283  0.74998095  0.87477203  1
  Mg  Mg144  1  0.74975800  0.49999269  0.12474626  1
  Mg  Mg145  1  0.74973390  0.49998979  0.37472780  1
  Mg  Mg146  1  0.74980254  0.50006117  0.62473195  1
  Mg  Mg147  1  0.74980926  0.49993550  0.87471066  1
  Mg  Mg148  1  0.49971597  0.74996273  0.12469378  1
  Mg  Mg149  1  0.49968240  0.75002943  0.37467226  1
  Mg  Mg150  1  0.49974899  0.75000227  0.62466159  1
  Mg  Mg151  1  0.49970733  0.74994306  0.87469495  1
  Mg  Mg152  1  0.24982869  -0.00005754  0.12467116  1
  Mg  Mg153  1  0.24975269  -0.00001895  0.37469701  1
  Mg  Mg154  1  0.24972815  0.00003202  0.62468231  1
  Mg  Mg155  1  0.24971916  -0.00008473  0.87469809  1
  Mg  Mg156  1  0.74978590  -0.00006994  0.12472982  1
  Mg  Mg157  1  0.74967580  -0.00007472  0.37471611  1
  Mg  Mg158  1  0.74966534  -0.00004242  0.62476995  1
  Mg  Mg159  1  0.74978605  -0.00009179  0.87477891  1
