# generated using pymatgen
data_CsPbBr3
_symmetry_space_group_name_H-M   'P 1'
_cell_length_a   16.94092649
_cell_length_b   16.94092649
_cell_length_c   23.95808800
_cell_angle_alpha   90.00000000
_cell_angle_beta   90.00000000
_cell_angle_gamma   90.00000000
_symmetry_Int_Tables_number   1
_chemical_formula_structural   CsPbBr3
_chemical_formula_sum   'Cs32 Pb32 Br96'
_cell_volume   6875.85123336
_cell_formula_units_Z   32
loop_
 _symmetry_equiv_pos_site_id
 _symmetry_equiv_pos_as_xyz
  1  'x, y, z'
loop_
 _atom_site_type_symbol
 _atom_site_label
 _atom_site_symmetry_multiplicity
 _atom_site_fract_x
 _atom_site_fract_y
 _atom_site_fract_z
 _atom_site_occupancy
  Br  Br0  1  0.01402630  0.21268556  0.99981208  1
  Br  Br1  1  0.99660592  0.28692353  0.24967993  1
  Br  Br2  1  0.99785056  0.21301869  0.49992470  1
  Br  Br3  1  0.99677798  0.28706853  0.75016826  1
  Br  Br4  1  0.47039602  0.24648700  -0.00009140  1
  Br  Br5  1  0.53784587  0.25090534  0.25061878  1
  Br  Br6  1  0.46101815  0.25935153  0.50000923  1
  Br  Br7  1  0.53745313  0.25121989  0.74928886  1
  Br  Br8  1  0.28431400  0.49325079  0.99986893  1
  Br  Br9  1  0.21271248  0.50316794  0.24997368  1
  Br  Br10  1  0.28768517  0.50248367  0.49983127  1
  Br  Br11  1  0.21303533  0.50236761  0.74983819  1
  Br  Br12  1  0.96315285  0.74555515  0.99978403  1
  Br  Br13  1  0.03522256  0.74579222  0.24993695  1
  Br  Br14  1  0.96415440  0.75615982  0.49969385  1
  Br  Br15  1  0.03681207  0.74694592  0.74964173  1
  Br  Br16  1  0.74900705  0.53222855  -0.00004314  1
  Br  Br17  1  0.75127990  0.46124145  0.25019332  1
  Br  Br18  1  0.74323084  0.53775786  0.49996540  1
  Br  Br19  1  0.75159457  0.46207199  0.74972414  1
  Br  Br20  1  0.50604578  0.71237311  0.99978214  1
  Br  Br21  1  0.49832407  0.78801398  0.24956498  1
  Br  Br22  1  0.49764611  0.71722313  0.49991452  1
  Br  Br23  1  0.49832578  0.78787600  0.75024168  1
  Br  Br24  1  0.24795624  0.03678334  -0.00008411  1
  Br  Br25  1  0.25213076  0.96267896  0.25023476  1
  Br  Br26  1  0.23934919  0.03806553  0.49990893  1
  Br  Br27  1  0.25147238  0.96250014  0.74948840  1
  Br  Br28  1  0.78838456  0.99012720  -0.00023836  1
  Br  Br29  1  0.71247802  0.99853212  0.24924115  1
  Br  Br30  1  0.78116779  0.00097260  0.49982197  1
  Br  Br31  1  0.71235932  0.99846363  0.75032224  1
  Br  Br32  1  0.14183918  0.13837179  0.14764130  1
  Br  Br33  1  0.10610670  0.11045130  0.35504722  1
  Br  Br34  1  0.10792886  0.11268428  0.64633894  1
  Br  Br35  1  0.14474157  0.14183505  0.85427081  1
  Br  Br36  1  0.64338649  0.13901315  0.10961417  1
  Br  Br37  1  0.60593128  0.11031681  0.39155542  1
  Br  Br38  1  0.60789026  0.11115721  0.60819446  1
  Br  Br39  1  0.64476462  0.14048303  0.88987909  1
  Br  Br40  1  0.36034723  0.35681038  0.14511873  1
  Br  Br41  1  0.38945025  0.39411140  0.35414118  1
  Br  Br42  1  0.38991681  0.39384250  0.64552639  1
  Br  Br43  1  0.35795747  0.35412587  0.85646478  1
  Br  Br44  1  0.14329382  0.63918668  0.10677333  1
  Br  Br45  1  0.10640447  0.61077385  0.39344096  1
  Br  Br46  1  0.10752108  0.61088542  0.60577268  1
  Br  Br47  1  0.14457357  0.64055994  0.89205344  1
  Br  Br48  1  0.85821994  0.35452751  0.10579218  1
  Br  Br49  1  0.88750152  0.39277394  0.39361071  1
  Br  Br50  1  0.88750916  0.39236255  0.60638226  1
  Br  Br51  1  0.85828877  0.35481130  0.89345119  1
  Br  Br52  1  0.64352099  0.63969183  0.14575058  1
  Br  Br53  1  0.60554905  0.61011969  0.35394986  1
  Br  Br54  1  0.60603721  0.61046499  0.64554739  1
  Br  Br55  1  0.64347154  0.64008721  0.85420704  1
  Br  Br56  1  0.36062518  0.85693719  0.10659800  1
  Br  Br57  1  0.39082919  0.89501028  0.39255419  1
  Br  Br58  1  0.39028709  0.89450693  0.60710919  1
  Br  Br59  1  0.35894081  0.85592951  0.89287668  1
  Br  Br60  1  0.85714079  0.85211818  0.14397699  1
  Br  Br61  1  0.88987443  0.89375007  0.35526458  1
  Br  Br62  1  0.88656630  0.88855235  0.64588250  1
  Br  Br63  1  0.85678748  0.85195309  0.85598182  1
  Br  Br64  1  0.89382862  0.10494047  0.14329722  1
  Br  Br65  1  0.84842289  0.15110645  0.36211024  1
  Br  Br66  1  0.85058037  0.14908560  0.63787647  1
  Br  Br67  1  0.89367916  0.10497564  0.85492975  1
  Br  Br68  1  0.39984421  0.09816987  0.13781110  1
  Br  Br69  1  0.35621478  0.14388691  0.35561260  1
  Br  Br70  1  0.35778745  0.14267621  0.64515723  1
  Br  Br71  1  0.40165068  0.09637323  0.86237812  1
  Br  Br72  1  0.11325110  0.38573173  0.10387686  1
  Br  Br73  1  0.13749376  0.36271434  0.38724619  1
  Br  Br74  1  0.13753834  0.36296732  0.61241004  1
  Br  Br75  1  0.11231947  0.38664405  0.89589390  1
  Br  Br76  1  0.90259826  0.59522878  0.13781036  1
  Br  Br77  1  0.85821894  0.64079084  0.35974750  1
  Br  Br78  1  0.86021593  0.63920390  0.64051738  1
  Br  Br79  1  0.90285841  0.59564207  0.86221356  1
  Br  Br80  1  0.61052983  0.38806678  0.11057524  1
  Br  Br81  1  0.63484765  0.36387234  0.39958622  1
  Br  Br82  1  0.63605283  0.36327216  0.60267140  1
  Br  Br83  1  0.60961953  0.38903621  0.88883194  1
  Br  Br84  1  0.39073675  0.60923030  0.13961438  1
  Br  Br85  1  0.34620738  0.65368954  0.36180635  1
  Br  Br86  1  0.34637545  0.65351792  0.63821653  1
  Br  Br87  1  0.39128766  0.60837554  0.85957085  1
  Br  Br88  1  0.10896541  0.88844390  0.11393125  1
  Br  Br89  1  0.13669676  0.86368188  0.39594030  1
  Br  Br90  1  0.13335224  0.86723590  0.60206326  1
  Br  Br91  1  0.10794044  0.89023419  0.88624825  1
  Br  Br92  1  0.61316759  0.88670666  0.10018413  1
  Br  Br93  1  0.63771789  0.86167465  0.38949355  1
  Br  Br94  1  0.63698578  0.86203373  0.60989641  1
  Br  Br95  1  0.61214668  0.88770052  0.89862408  1
  Cs  Cs96  1  0.00577397  0.99539431  0.00056999  1
  Cs  Cs97  1  0.01776508  0.98254790  0.24167593  1
  Cs  Cs98  1  0.01175600  0.98817697  0.49625635  1
  Cs  Cs99  1  0.01752402  0.98219392  0.75709575  1
  Cs  Cs100  1  0.48311933  0.00739781  0.00026124  1
  Cs  Cs101  1  0.48957674  0.01055172  0.26669136  1
  Cs  Cs102  1  0.51729723  0.98526517  0.50018161  1
  Cs  Cs103  1  0.49080539  0.00956669  0.73315471  1
  Cs  Cs104  1  0.23866068  0.26277504  0.99686879  1
  Cs  Cs105  1  0.23163889  0.26807825  0.25879155  1
  Cs  Cs106  1  0.24326525  0.25570071  0.49977050  1
  Cs  Cs107  1  0.23198313  0.26806295  0.74049236  1
  Cs  Cs108  1  0.98805458  0.50761782  0.00007390  1
  Cs  Cs109  1  0.99059939  0.50834545  0.26839385  1
  Cs  Cs110  1  0.97465778  0.52413551  0.50009609  1
  Cs  Cs111  1  0.99145191  0.50803993  0.73229288  1
  Cs  Cs112  1  0.72681610  0.26722479  -0.00008403  1
  Cs  Cs113  1  0.76048920  0.23892110  0.23259004  1
  Cs  Cs114  1  0.76231316  0.23943582  0.50041513  1
  Cs  Cs115  1  0.76057031  0.23922480  0.76637524  1
  Cs  Cs116  1  0.50185685  0.49515327  0.00004346  1
  Cs  Cs117  1  0.51512579  0.48364163  0.23916221  1
  Cs  Cs118  1  0.51247843  0.48787877  0.50080806  1
  Cs  Cs119  1  0.51659764  0.48328176  0.75976469  1
  Cs  Cs120  1  0.27484720  0.72460606  0.00020802  1
  Cs  Cs121  1  0.25760209  0.74128912  0.23187104  1
  Cs  Cs122  1  0.25744111  0.73855620  0.50008558  1
  Cs  Cs123  1  0.25862542  0.74114917  0.76830032  1
  Cs  Cs124  1  0.73808966  0.76271840  0.99912964  1
  Cs  Cs125  1  0.73295733  0.76586776  0.26029645  1
  Cs  Cs126  1  0.74674692  0.75537040  0.49995255  1
  Cs  Cs127  1  0.73356489  0.76507655  0.73895116  1
  Pb  Pb128  1  0.00158832  0.24780879  0.12433480  1
  Pb  Pb129  1  0.99621682  0.25030356  0.37496854  1
  Pb  Pb130  1  0.99703005  0.25002634  0.62504647  1
  Pb  Pb131  1  0.00169455  0.24795985  0.87528490  1
  Pb  Pb132  1  0.49835886  0.24507450  0.12645350  1
  Pb  Pb133  1  0.49793831  0.25266657  0.37560104  1
  Pb  Pb134  1  0.49815505  0.25243224  0.62431936  1
  Pb  Pb135  1  0.49846780  0.24472268  0.87327344  1
  Pb  Pb136  1  0.24883199  0.49684628  0.12570834  1
  Pb  Pb137  1  0.25003908  0.50333951  0.37521561  1
  Pb  Pb138  1  0.25013623  0.50336694  0.62434805  1
  Pb  Pb139  1  0.24896242  0.49713548  0.87414488  1
  Pb  Pb140  1  0.99852921  0.74533047  0.12457227  1
  Pb  Pb141  1  0.00003674  0.75276515  0.37429266  1
  Pb  Pb142  1  0.00067615  0.75287730  0.62560031  1
  Pb  Pb143  1  0.99874231  0.74621398  0.87524681  1
  Pb  Pb144  1  0.75348315  0.49999493  0.12567407  1
  Pb  Pb145  1  0.74502750  0.49940873  0.37463059  1
  Pb  Pb146  1  0.74603622  0.49941135  0.62538760  1
  Pb  Pb147  1  0.75359602  0.50014332  0.87429095  1
  Pb  Pb148  1  0.50359243  0.75071466  0.12501660  1
  Pb  Pb149  1  0.49465406  0.74962057  0.37417280  1
  Pb  Pb150  1  0.49473608  0.74946102  0.62548548  1
  Pb  Pb151  1  0.50335557  0.75079282  0.87445235  1
  Pb  Pb152  1  0.25054075  -0.00014876  0.12533346  1
  Pb  Pb153  1  0.24799028  0.00201885  0.37534867  1
  Pb  Pb154  1  0.24785480  0.00214141  0.62465146  1
  Pb  Pb155  1  0.25066106  -0.00011048  0.87462959  1
  Pb  Pb156  1  0.75125503  0.99668363  0.12397077  1
  Pb  Pb157  1  0.75000428  0.00365417  0.37359694  1
  Pb  Pb158  1  0.75061353  0.00298308  0.62607833  1
  Pb  Pb159  1  0.75135636  0.99708466  0.87562017  1
