# generated using pymatgen
data_CsPbF3
_symmetry_space_group_name_H-M   'P 1'
_cell_length_a   13.76006745
_cell_length_b   13.76006745
_cell_length_c   19.45967400
_cell_angle_alpha   90.00000000
_cell_angle_beta   90.00000000
_cell_angle_gamma   90.00000000
_symmetry_Int_Tables_number   1
_chemical_formula_structural   CsPbF3
_chemical_formula_sum   'Cs32 Pb32 F96'
_cell_volume   3684.48409091
_cell_formula_units_Z   32
loop_
 _symmetry_equiv_pos_site_id
 _symmetry_equiv_pos_as_xyz
  1  'x, y, z'
loop_
 _atom_site_type_symbol
 _atom_site_label
 _atom_site_symmetry_multiplicity
 _atom_site_fract_x
 _atom_site_fract_y
 _atom_site_fract_z
 _atom_site_occupancy
  Cs  Cs0  1  -0.00171371  0.25067686  0.12522653  1
  Cs  Cs1  1  -0.00072641  0.24937200  0.37547501  1
  Cs  Cs2  1  0.00016086  0.24980343  0.62557564  1
  Cs  Cs3  1  0.00031824  0.24847097  0.87515878  1
  Cs  Cs4  1  0.49789076  0.24987089  0.12584158  1
  Cs  Cs5  1  0.50009196  0.24934704  0.37575266  1
  Cs  Cs6  1  0.50007043  0.25013581  0.62559324  1
  Cs  Cs7  1  0.50002604  0.24941286  0.87592388  1
  Cs  Cs8  1  0.24779516  0.49998467  0.12554027  1
  Cs  Cs9  1  0.25026553  0.49949892  0.37509184  1
  Cs  Cs10  1  0.25223429  0.49913527  0.62520488  1
  Cs  Cs11  1  0.25076077  0.50065116  0.87555787  1
  Cs  Cs12  1  -0.00118779  0.75089272  0.12575370  1
  Cs  Cs13  1  -0.00103219  0.74955667  0.37569111  1
  Cs  Cs14  1  0.00120183  0.74886081  0.62541095  1
  Cs  Cs15  1  -0.00011116  0.74899017  0.87558142  1
  Cs  Cs16  1  0.74847617  0.49908348  0.12544510  1
  Cs  Cs17  1  0.75044013  0.50045887  0.37656294  1
  Cs  Cs18  1  0.75205374  0.49871546  0.62588859  1
  Cs  Cs19  1  0.75094258  0.50215491  0.87469682  1
  Cs  Cs20  1  0.49890114  0.75093883  0.12531809  1
  Cs  Cs21  1  0.49911111  0.74944541  0.37529036  1
  Cs  Cs22  1  0.50041603  0.75015110  0.62563232  1
  Cs  Cs23  1  0.49942243  0.74908343  0.87540119  1
  Cs  Cs24  1  0.24922177  -0.00059635  0.12543145  1
  Cs  Cs25  1  0.24987336  -0.00011880  0.37580324  1
  Cs  Cs26  1  0.25220766  -0.00059609  0.62565377  1
  Cs  Cs27  1  0.25015819  0.00046678  0.87541247  1
  Cs  Cs28  1  0.74942269  -0.00089778  0.12554870  1
  Cs  Cs29  1  0.75017351  0.00017979  0.37478271  1
  Cs  Cs30  1  0.75233059  -0.00087478  0.62531542  1
  Cs  Cs31  1  0.74992220  0.00089913  0.87607456  1
  F  F32  1  0.10647410  0.14292656  0.00248261  1
  F  F33  1  0.10610046  0.14366805  0.24885261  1
  F  F34  1  0.14399960  0.10631537  0.50246702  1
  F  F35  1  0.14410519  0.10662822  0.74877876  1
  F  F36  1  0.60609453  0.14369980  0.00197327  1
  F  F37  1  0.60603549  0.14269801  0.25016065  1
  F  F38  1  0.64388164  0.10609577  0.50069619  1
  F  F39  1  0.64456182  0.10628196  0.74871618  1
  F  F40  1  0.39329329  0.35604228  0.99971382  1
  F  F41  1  0.39335021  0.35624350  0.25247719  1
  F  F42  1  0.35774803  0.39274936  0.49895033  1
  F  F43  1  0.35773622  0.39315941  0.75087858  1
  F  F44  1  0.10666318  0.64289588  0.00256164  1
  F  F45  1  0.10615514  0.64235564  0.25027991  1
  F  F46  1  0.14398462  0.60626579  0.50054343  1
  F  F47  1  0.14456357  0.60643474  0.74842203  1
  F  F48  1  0.89363259  0.35593760  -0.00160081  1
  F  F49  1  0.89304925  0.35550006  0.25025398  1
  F  F50  1  0.85783725  0.39225992  0.50061615  1
  F  F51  1  0.85823874  0.39273580  0.75217085  1
  F  F52  1  0.60650667  0.64280159  0.00113125  1
  F  F53  1  0.60604696  0.64346385  0.24898412  1
  F  F54  1  0.64426958  0.60627026  0.50324024  1
  F  F55  1  0.64413711  0.60703609  0.74916404  1
  F  F56  1  0.39289077  0.85679411  -0.00017317  1
  F  F57  1  0.39263749  0.85591984  0.25016045  1
  F  F58  1  0.35681127  0.89320807  0.50042764  1
  F  F59  1  0.35770277  0.89315991  0.75082529  1
  F  F60  1  0.89301189  0.85633169  -0.00066905  1
  F  F61  1  0.89261157  0.85707256  0.25145988  1
  F  F62  1  0.85734347  0.89303307  0.49618294  1
  F  F63  1  0.85741055  0.89358072  0.75567941  1
  F  F64  1  0.85556279  0.10657882  0.00234857  1
  F  F65  1  0.85528477  0.10645906  0.24907651  1
  F  F66  1  0.89292369  0.14110851  0.50156433  1
  F  F67  1  0.89315865  0.14140806  0.74911624  1
  F  F68  1  0.35532196  0.10650275  0.00107937  1
  F  F69  1  0.35458265  0.10631979  0.25009466  1
  F  F70  1  0.39322847  0.14125549  0.50085056  1
  F  F71  1  0.39316064  0.14170690  0.74948529  1
  F  F72  1  0.14278721  0.39373205  0.00030126  1
  F  F73  1  0.14197239  0.39349381  0.25047098  1
  F  F74  1  0.10672532  0.35474795  0.50098909  1
  F  F75  1  0.10662191  0.35499817  0.75024258  1
  F  F76  1  0.85553642  0.60647170  0.00118746  1
  F  F77  1  0.85479080  0.60633887  0.24974774  1
  F  F78  1  0.89298444  0.64107401  0.50040469  1
  F  F79  1  0.89309219  0.64156148  0.74994468  1
  F  F80  1  0.64253891  0.39329698  0.99242303  1
  F  F81  1  0.64256122  0.39358179  0.25603735  1
  F  F82  1  0.60682581  0.35520082  0.49993181  1
  F  F83  1  0.60672820  0.35516364  0.75169283  1
  F  F84  1  0.35626812  0.60678358  0.00307948  1
  F  F85  1  0.35548636  0.60633823  0.24933286  1
  F  F86  1  0.39311355  0.64155642  0.50150459  1
  F  F87  1  0.39309858  0.64161259  0.74875730  1
  F  F88  1  0.14219810  0.89296217  0.00005305  1
  F  F89  1  0.14186498  0.89284989  0.25063375  1
  F  F90  1  0.10615618  0.85439801  0.49977739  1
  F  F91  1  0.10631167  0.85461532  0.75099432  1
  F  F92  1  0.64193362  0.89305302  0.00048978  1
  F  F93  1  0.64115785  0.89283062  0.25003913  1
  F  F94  1  0.60622253  0.85428703  0.50030330  1
  F  F95  1  0.60644059  0.85500282  0.75109762  1
  F  F96  1  0.99911836  -0.00488707  0.12505225  1
  F  F97  1  0.00128213  0.00409390  0.37510938  1
  F  F98  1  0.99370507  -0.00665873  0.62510118  1
  F  F99  1  0.00330226  0.00533285  0.87504978  1
  F  F100  1  0.49481135  -0.00298808  0.12514332  1
  F  F101  1  0.49496226  0.99833034  0.37515886  1
  F  F102  1  0.49513139  -0.00434602  0.62515270  1
  F  F103  1  0.49606365  0.00263465  0.87513289  1
  F  F104  1  0.25214054  0.25201323  0.12611094  1
  F  F105  1  0.24805647  0.24821538  0.37609123  1
  F  F106  1  0.25083333  0.25126234  0.62610143  1
  F  F107  1  0.24896402  0.24836175  0.87613149  1
  F  F108  1  -0.00091103  0.49485637  0.12509061  1
  F  F109  1  -0.00296067  0.49666923  0.37514674  1
  F  F110  1  0.99500416  0.49703951  0.62515270  1
  F  F111  1  0.00214670  0.50435758  0.87510536  1
  F  F112  1  0.74749824  0.25552709  0.12581731  1
  F  F113  1  0.75121586  0.24639890  0.37594609  1
  F  F114  1  0.74952841  0.24969013  0.62601772  1
  F  F115  1  0.75046120  0.23963208  0.87588046  1
  F  F116  1  0.50720578  0.49189410  0.12523277  1
  F  F117  1  0.49995735  0.50593329  0.37521391  1
  F  F118  1  0.49531643  0.49564905  0.62522233  1
  F  F119  1  0.49413278  0.50605878  0.87521010  1
  F  F120  1  0.24970457  0.75035525  0.12605381  1
  F  F121  1  0.25024386  0.74860761  0.37604903  1
  F  F122  1  0.24866986  0.75044905  0.62606780  1
  F  F123  1  0.24956897  0.74578364  0.87607321  1
  F  F124  1  0.75052587  0.75047765  0.12609838  1
  F  F125  1  0.74814571  0.74756674  0.37614364  1
  F  F126  1  0.75219957  0.75549817  0.62613502  1
  F  F127  1  0.74877348  0.74670202  0.87609448  1
  Pb  Pb128  1  -0.00018432  -0.00010819  0.00016824  1
  Pb  Pb129  1  -0.00029355  0.00006147  0.25005363  1
  Pb  Pb130  1  0.00016025  -0.00084994  0.50011788  1
  Pb  Pb131  1  0.00035778  -0.00081783  0.75022512  1
  Pb  Pb132  1  0.49884343  0.00012117  0.00022477  1
  Pb  Pb133  1  0.49816161  -0.00045658  0.25013707  1
  Pb  Pb134  1  0.49973781  -0.00135209  0.50019366  1
  Pb  Pb135  1  0.49998741  -0.00050633  0.75009954  1
  Pb  Pb136  1  0.24949028  0.25014804  0.00102418  1
  Pb  Pb137  1  0.24920010  0.25001116  0.25092160  1
  Pb  Pb138  1  0.25010517  0.24916673  0.50096362  1
  Pb  Pb139  1  0.25027773  0.24949608  0.75082367  1
  Pb  Pb140  1  -0.00028613  0.49982863  0.00010130  1
  Pb  Pb141  1  -0.00130797  0.49916456  0.25011537  1
  Pb  Pb142  1  0.00020809  0.49859978  0.50022147  1
  Pb  Pb143  1  0.00060857  0.49940833  0.75013258  1
  Pb  Pb144  1  0.74938150  0.24989855  0.00020203  1
  Pb  Pb145  1  0.74902130  0.24994031  0.25091421  1
  Pb  Pb146  1  0.75007379  0.24881108  0.50087080  1
  Pb  Pb147  1  0.75017914  0.24871212  0.75084726  1
  Pb  Pb148  1  0.49987489  0.49971638  0.00002534  1
  Pb  Pb149  1  0.50002783  0.49984525  0.25046778  1
  Pb  Pb150  1  0.50023058  0.49968406  0.50025642  1
  Pb  Pb151  1  0.49998728  0.49970155  0.75009894  1
  Pb  Pb152  1  0.24956983  0.74964881  0.00100579  1
  Pb  Pb153  1  0.24908802  0.74941798  0.25084755  1
  Pb  Pb154  1  0.24998899  0.74915209  0.50090464  1
  Pb  Pb155  1  0.25011836  0.74920815  0.75070492  1
  Pb  Pb156  1  0.74940028  0.74980235  0.00095080  1
  Pb  Pb157  1  0.74891973  0.74975508  0.25084985  1
  Pb  Pb158  1  0.75018300  0.74949464  0.50093743  1
  Pb  Pb159  1  0.75045478  0.75014239  0.75102648  1
