# generated using pymatgen
data_CsPbI3
_symmetry_space_group_name_H-M   'P 1'
_cell_length_a   18.07087747
_cell_length_b   18.07087747
_cell_length_c   25.55608100
_cell_angle_alpha   90.00000000
_cell_angle_beta   90.00000000
_cell_angle_gamma   90.00000000
_symmetry_Int_Tables_number   1
_chemical_formula_structural   CsPbI3
_chemical_formula_sum   'Cs32 Pb32 I96'
_cell_volume   8345.50723971
_cell_formula_units_Z   32
loop_
 _symmetry_equiv_pos_site_id
 _symmetry_equiv_pos_as_xyz
  1  'x, y, z'
loop_
 _atom_site_type_symbol
 _atom_site_label
 _atom_site_symmetry_multiplicity
 _atom_site_fract_x
 _atom_site_fract_y
 _atom_site_fract_z
 _atom_site_occupancy
  Cs  Cs0  1  0.02815032  0.25038662  0.12633505  1
  Cs  Cs1  1  0.00998608  0.24299177  0.39687069  1
  Cs  Cs2  1  0.02310320  0.22818589  0.63803429  1
  Cs  Cs3  1  0.98819388  0.25074080  0.87586124  1
  Cs  Cs4  1  0.50651419  0.24672885  0.12796792  1
  Cs  Cs5  1  0.47588809  0.26908636  0.36486074  1
  Cs  Cs6  1  0.48941362  0.25740258  0.60498879  1
  Cs  Cs7  1  0.49185460  0.26760755  0.87566957  1
  Cs  Cs8  1  0.28069840  0.48318693  0.12394239  1
  Cs  Cs9  1  0.23388031  0.51251351  0.35648020  1
  Cs  Cs10  1  0.22942193  0.51723675  0.61538863  1
  Cs  Cs11  1  0.23737291  0.51840950  0.87173142  1
  Cs  Cs12  1  0.01358989  0.75043430  0.12678174  1
  Cs  Cs13  1  0.97763169  0.76937358  0.36270470  1
  Cs  Cs14  1  0.99198704  0.75807497  0.60427293  1
  Cs  Cs15  1  0.97181060  0.74597715  0.87627572  1
  Cs  Cs16  1  0.76353222  0.47795159  0.12142195  1
  Cs  Cs17  1  0.76746586  0.48294337  0.38490000  1
  Cs  Cs18  1  0.76565969  0.48750786  0.64634730  1
  Cs  Cs19  1  0.71455486  0.52897964  0.87690711  1
  Cs  Cs20  1  0.52682199  0.75053245  0.12675801  1
  Cs  Cs21  1  0.50849111  0.74273108  0.39688921  1
  Cs  Cs22  1  0.52352983  0.72759071  0.63258371  1
  Cs  Cs23  1  0.49150304  0.74749976  0.87145603  1
  Cs  Cs24  1  0.26638631  0.98234728  0.12303141  1
  Cs  Cs25  1  0.26570923  0.98052691  0.38360188  1
  Cs  Cs26  1  0.26804413  0.98783752  0.64277554  1
  Cs  Cs27  1  0.21706173  0.01228121  0.87920135  1
  Cs  Cs28  1  0.78172902  0.98549957  0.12322412  1
  Cs  Cs29  1  0.73351383  0.01297986  0.35709657  1
  Cs  Cs30  1  0.72966316  0.02183006  0.61505547  1
  Cs  Cs31  1  0.73647404  0.01519516  0.87006371  1
  I  I32  1  0.10200401  0.14613977  0.98377811  1
  I  I33  1  0.09448967  0.15790928  0.26594279  1
  I  I34  1  0.14122756  0.10794613  0.47793525  1
  I  I35  1  0.10712288  0.14152147  0.76986048  1
  I  I36  1  0.59945648  0.14605321  0.98382208  1
  I  I37  1  0.60215771  0.15028376  0.26864151  1
  I  I38  1  0.64506571  0.10531890  0.48406809  1
  I  I39  1  0.60618636  0.13937577  0.77129126  1
  I  I40  1  0.39938888  0.35003987  0.01606500  1
  I  I41  1  0.39264860  0.35953648  0.23372524  1
  I  I42  1  0.35756467  0.39095172  0.52381621  1
  I  I43  1  0.40734959  0.34124095  0.73738739  1
  I  I44  1  0.10088017  0.64551354  0.98374497  1
  I  I45  1  0.10393746  0.64881381  0.26718332  1
  I  I46  1  0.14647830  0.60207872  0.48413604  1
  I  I47  1  0.10775835  0.64001231  0.77292573  1
  I  I48  1  0.89663342  0.34826261  0.01750743  1
  I  I49  1  0.89146647  0.36081417  0.22634274  1
  I  I50  1  0.85006097  0.40034499  0.51610529  1
  I  I51  1  0.89679570  0.34975841  0.73351266  1
  I  I52  1  0.59950090  0.64915586  0.98546214  1
  I  I53  1  0.59437634  0.65830874  0.26618027  1
  I  I54  1  0.64079135  0.60907017  0.47834036  1
  I  I55  1  0.60806888  0.64174871  0.76298158  1
  I  I56  1  0.39661344  0.84912672  0.01853162  1
  I  I57  1  0.39160161  0.86110449  0.22660865  1
  I  I58  1  0.35245753  0.89658202  0.51410629  1
  I  I59  1  0.39980100  0.84675415  0.73053503  1
  I  I60  1  0.89643231  0.85124669  0.01868548  1
  I  I61  1  0.89246296  0.85909774  0.23209313  1
  I  I62  1  0.85818234  0.89218769  0.52582883  1
  I  I63  1  0.90787036  0.84147129  0.73559788  1
  I  I64  1  0.84786300  0.09663147  0.99875328  1
  I  I65  1  0.84981963  0.10572476  0.24078656  1
  I  I66  1  0.89636623  0.14644938  0.52144444  1
  I  I67  1  0.85543205  0.09933979  0.73431115  1
  I  I68  1  0.35088731  0.09892044  0.98413109  1
  I  I69  1  0.35494734  0.11058107  0.27385753  1
  I  I70  1  0.39320726  0.14547824  0.47974525  1
  I  I71  1  0.35362097  0.09642522  0.77197871  1
  I  I72  1  0.14325153  0.39016464  0.02376104  1
  I  I73  1  0.14337956  0.39897455  0.22976720  1
  I  I74  1  0.10339723  0.35549168  0.52371263  1
  I  I75  1  0.14722458  0.38925794  0.72991412  1
  I  I76  1  0.85448661  0.60234846  0.98201225  1
  I  I77  1  0.85522413  0.61082688  0.27423271  1
  I  I78  1  0.89573771  0.64756099  0.47932889  1
  I  I79  1  0.85716264  0.60061341  0.77083511  1
  I  I80  1  0.64690443  0.39660357  0.99013071  1
  I  I81  1  0.64774914  0.40316175  0.26398722  1
  I  I82  1  0.60371921  0.35338731  0.47820563  1
  I  I83  1  0.64836802  0.39328743  0.76623732  1
  I  I84  1  0.34643661  0.59501374  0.00092037  1
  I  I85  1  0.35141160  0.60485585  0.24040980  1
  I  I86  1  0.39423282  0.64332594  0.52058459  1
  I  I87  1  0.35250504  0.59630540  0.73410113  1
  I  I88  1  0.14764067  0.89654327  0.00158475  1
  I  I89  1  0.14494396  0.90032491  0.26005821  1
  I  I90  1  0.10514266  0.85461885  0.47703801  1
  I  I91  1  0.15182991  0.89538421  0.75928549  1
  I  I92  1  0.64396461  0.89123546  0.02387754  1
  I  I93  1  0.64417178  0.89909538  0.22939516  1
  I  I94  1  0.60629183  0.85769379  0.52164531  1
  I  I95  1  0.65002271  0.89360130  0.72883814  1
  I  I96  1  0.01893176  0.01902826  0.12539012  1
  I  I97  1  0.95840059  0.99715732  0.37592667  1
  I  I98  1  0.04423767  0.00019091  0.62392925  1
  I  I99  1  0.97920556  0.97818928  0.87405810  1
  I  I100  1  0.48677328  0.03341581  0.12551850  1
  I  I101  1  0.50272002  0.96138050  0.37545707  1
  I  I102  1  0.49660306  0.03763820  0.62563395  1
  I  I103  1  0.51672600  0.96122984  0.87582857  1
  I  I104  1  0.25017311  0.21160122  0.12708141  1
  I  I105  1  0.24703670  0.29379268  0.37706117  1
  I  I106  1  0.25391305  0.20892409  0.62673721  1
  I  I107  1  0.25680709  0.28928735  0.87675950  1
  I  I108  1  0.98385631  0.53643448  0.12562159  1
  I  I109  1  0.00270717  0.46135487  0.37608138  1
  I  I110  1  0.99861990  0.53884299  0.62640773  1
  I  I111  1  0.01694631  0.46374516  0.87636520  1
  I  I112  1  0.72214824  0.24703073  0.12524265  1
  I  I113  1  0.79010350  0.25479386  0.37547987  1
  I  I114  1  0.70842873  0.25014488  0.62392106  1
  I  I115  1  0.77298299  0.24385406  0.87353975  1
  I  I116  1  0.52407747  0.51390929  0.12542432  1
  I  I117  1  0.45842937  0.49730149  0.37589192  1
  I  I118  1  0.54219525  0.49515717  0.62344784  1
  I  I119  1  0.47684747  0.49682683  0.87327993  1
  I  I120  1  0.22772924  0.73965308  0.12492003  1
  I  I121  1  0.28899094  0.75327347  0.37492523  1
  I  I122  1  0.21004184  0.74797413  0.62349938  1
  I  I123  1  0.27627733  0.75395430  0.87337102  1
  I  I124  1  0.74713820  0.70717733  0.12681094  1
  I  I125  1  0.74808528  0.79347065  0.37598775  1
  I  I126  1  0.75250925  0.70766493  0.62483504  1
  I  I127  1  0.74892811  0.78218491  0.87578286  1
  Pb  Pb128  1  0.99997326  0.99998987  0.99996107  1
  Pb  Pb129  1  0.00042879  0.00613841  0.25228170  1
  Pb  Pb130  1  0.99995943  0.00077496  0.50018929  1
  Pb  Pb131  1  0.00063668  0.99395301  0.74764221  1
  Pb  Pb132  1  0.49905724  0.00054297  0.99938562  1
  Pb  Pb133  1  0.49945255  0.00039783  0.24916729  1
  Pb  Pb134  1  0.50000746  0.00003379  0.49999002  1
  Pb  Pb135  1  0.50021191  0.00030027  0.75191460  1
  Pb  Pb136  1  0.25142297  0.25072416  0.00008415  1
  Pb  Pb137  1  0.24810305  0.24873464  0.25147799  1
  Pb  Pb138  1  0.24998409  0.25072923  0.50087585  1
  Pb  Pb139  1  0.25351121  0.24968191  0.75084117  1
  Pb  Pb140  1  0.00012661  0.50027994  0.99993598  1
  Pb  Pb141  1  0.99858993  0.50065907  0.24838498  1
  Pb  Pb142  1  0.99996900  0.49993263  0.50012426  1
  Pb  Pb143  1  0.00239738  0.50065278  0.75170114  1
  Pb  Pb144  1  0.75089996  0.24827614  0.00004152  1
  Pb  Pb145  1  0.75050262  0.25301840  0.25112726  1
  Pb  Pb146  1  0.74946454  0.25230324  0.49996626  1
  Pb  Pb147  1  0.75023663  0.24798283  0.74873177  1
  Pb  Pb148  1  0.50004439  0.50080330  0.00034203  1
  Pb  Pb149  1  0.50221713  0.50617079  0.25287331  1
  Pb  Pb150  1  0.50002749  0.49996087  0.49973188  1
  Pb  Pb151  1  0.49910791  0.49420058  0.74644956  1
  Pb  Pb152  1  0.25226882  0.74858195  0.00025705  1
  Pb  Pb153  1  0.25172037  0.75165524  0.25051952  1
  Pb  Pb154  1  0.24852925  0.75032325  0.49972199  1
  Pb  Pb155  1  0.25156918  0.74838574  0.74848245  1
  Pb  Pb156  1  0.74960315  0.75126391  0.00206444  1
  Pb  Pb157  1  0.74824632  0.74850191  0.25068419  1
  Pb  Pb158  1  0.75181901  0.75171642  0.49965103  1
  Pb  Pb159  1  0.75363525  0.75294850  0.74743687  1
