# generated using pymatgen
data_CsPbCl3
_symmetry_space_group_name_H-M   'P 1'
_cell_length_a   16.18143299
_cell_length_b   16.18143299
_cell_length_c   22.88400300
_cell_angle_alpha   90.00000000
_cell_angle_beta   90.00000000
_cell_angle_gamma   90.00000000
_symmetry_Int_Tables_number   1
_chemical_formula_structural   CsPbCl3
_chemical_formula_sum   'Cs32 Pb32 Cl96'
_cell_volume   5991.91928442
_cell_formula_units_Z   32
loop_
 _symmetry_equiv_pos_site_id
 _symmetry_equiv_pos_as_xyz
  1  'x, y, z'
loop_
 _atom_site_type_symbol
 _atom_site_label
 _atom_site_symmetry_multiplicity
 _atom_site_fract_x
 _atom_site_fract_y
 _atom_site_fract_z
 _atom_site_occupancy
  Cl  Cl0  1  0.03308978  0.24255375  0.00032049  1
  Cl  Cl1  1  0.96531207  0.26057884  0.24988016  1
  Cl  Cl2  1  0.03166030  0.25017738  0.49990287  1
  Cl  Cl3  1  0.96672075  0.25236986  0.75045627  1
  Cl  Cl4  1  0.52273035  0.25804291  0.99995254  1
  Cl  Cl5  1  0.47527220  0.24363687  0.25018207  1
  Cl  Cl6  1  0.50683982  0.28249953  0.50041758  1
  Cl  Cl7  1  0.49238851  0.21955880  0.74959106  1
  Cl  Cl8  1  0.22888941  0.48340818  0.00012671  1
  Cl  Cl9  1  0.26976763  0.51882361  0.25034193  1
  Cl  Cl10  1  0.24162453  0.46956620  0.50042215  1
  Cl  Cl11  1  0.25808687  0.53121682  0.74999466  1
  Cl  Cl12  1  0.02372508  0.75803645  0.99986893  1
  Cl  Cl13  1  0.97618793  0.74334625  0.25011045  1
  Cl  Cl14  1  0.00592674  0.78272498  0.50042011  1
  Cl  Cl15  1  0.99225131  0.71958501  0.74962023  1
  Cl  Cl16  1  0.71608086  0.49628723  0.00006805  1
  Cl  Cl17  1  0.78236792  0.50640419  0.25019217  1
  Cl  Cl18  1  0.71366889  0.49990644  0.50025863  1
  Cl  Cl19  1  0.78506359  0.50306763  0.75009020  1
  Cl  Cl20  1  0.53267350  0.74231978  0.00045386  1
  Cl  Cl21  1  0.46469438  0.76012070  0.25004013  1
  Cl  Cl22  1  0.53196209  0.75002260  0.49992023  1
  Cl  Cl23  1  0.46667792  0.75254977  0.75047802  1
  Cl  Cl24  1  0.21645927  0.99642167  0.99986363  1
  Cl  Cl25  1  0.28143354  0.00614691  0.25012112  1
  Cl  Cl26  1  0.21300483  0.99987943  0.50015492  1
  Cl  Cl27  1  0.28507484  0.00299629  0.74988044  1
  Cl  Cl28  1  0.72823782  0.98344667  0.00007486  1
  Cl  Cl29  1  0.77058118  0.01886831  0.25002176  1
  Cl  Cl30  1  0.74194277  0.97027920  0.50012267  1
  Cl  Cl31  1  0.75812599  0.03115815  0.74996448  1
  Cl  Cl32  1  0.10711518  0.10913917  0.14258291  1
  Cl  Cl33  1  0.10292650  0.10689129  0.35677115  1
  Cl  Cl34  1  0.14257236  0.14345387  0.64196463  1
  Cl  Cl35  1  0.10900215  0.10963929  0.85779753  1
  Cl  Cl36  1  0.60432179  0.10620497  0.13387509  1
  Cl  Cl37  1  0.60316097  0.10615074  0.37760815  1
  Cl  Cl38  1  0.64380183  0.14401814  0.61123301  1
  Cl  Cl39  1  0.60499664  0.10547751  0.87824998  1
  Cl  Cl40  1  0.39416469  0.39581408  0.11641694  1
  Cl  Cl41  1  0.39407127  0.39697753  0.37180751  1
  Cl  Cl42  1  0.35599670  0.35638998  0.63883112  1
  Cl  Cl43  1  0.39548979  0.39596649  0.87244955  1
  Cl  Cl44  1  0.10438975  0.60625932  0.13379204  1
  Cl  Cl45  1  0.10370507  0.60648499  0.37905250  1
  Cl  Cl46  1  0.14378231  0.64401429  0.61120504  1
  Cl  Cl47  1  0.10500356  0.60547212  0.87825565  1
  Cl  Cl48  1  0.89116263  0.39333623  0.10718946  1
  Cl  Cl49  1  0.88908420  0.39322592  0.39259509  1
  Cl  Cl50  1  0.85700579  0.35807691  0.60857511  1
  Cl  Cl51  1  0.89493214  0.39582499  0.89319634  1
  Cl  Cl52  1  0.60726462  0.60917848  0.14289455  1
  Cl  Cl53  1  0.60301004  0.60692249  0.35687108  1
  Cl  Cl54  1  0.64226218  0.64333840  0.64232370  1
  Cl  Cl55  1  0.60905495  0.60968548  0.85789965  1
  Cl  Cl56  1  0.39132298  0.89339601  0.10737193  1
  Cl  Cl57  1  0.38914519  0.89330371  0.39243990  1
  Cl  Cl58  1  0.35706891  0.85804191  0.60821857  1
  Cl  Cl59  1  0.39497877  0.89584628  0.89310037  1
  Cl  Cl60  1  0.89409050  0.89573664  0.11620663  1
  Cl  Cl61  1  0.89362460  0.89645674  0.37111409  1
  Cl  Cl62  1  0.85601170  0.85640161  0.63884900  1
  Cl  Cl63  1  0.89549950  0.89597975  0.87266102  1
  Cl  Cl64  1  0.85631579  0.14386886  0.10727390  1
  Cl  Cl65  1  0.85389528  0.14339550  0.39273244  1
  Cl  Cl66  1  0.89604819  0.10448471  0.61375683  1
  Cl  Cl67  1  0.86244265  0.14124978  0.89570220  1
  Cl  Cl68  1  0.35635505  0.14411163  0.10854232  1
  Cl  Cl69  1  0.34771807  0.14937497  0.38853024  1
  Cl  Cl70  1  0.38819484  0.11193364  0.60321710  1
  Cl  Cl71  1  0.35834315  0.14508314  0.89062724  1
  Cl  Cl72  1  0.14213086  0.35807860  0.14261644  1
  Cl  Cl73  1  0.13547294  0.36164168  0.35440556  1
  Cl  Cl74  1  0.10468796  0.39565122  0.63751906  1
  Cl  Cl75  1  0.14410592  0.35942838  0.85724388  1
  Cl  Cl76  1  0.85657525  0.64399307  0.10807355  1
  Cl  Cl77  1  0.84775787  0.64936447  0.38856859  1
  Cl  Cl78  1  0.88819251  0.61189382  0.60349297  1
  Cl  Cl79  1  0.85839206  0.64513187  0.89098731  1
  Cl  Cl80  1  0.64248600  0.35818559  0.14176906  1
  Cl  Cl81  1  0.63972587  0.35785801  0.35939934  1
  Cl  Cl82  1  0.61209974  0.38837379  0.64678430  1
  Cl  Cl83  1  0.64993293  0.35394492  0.86143058  1
  Cl  Cl84  1  0.35640510  0.64386387  0.10749019  1
  Cl  Cl85  1  0.35400128  0.64334994  0.39303702  1
  Cl  Cl86  1  0.39601997  0.60447915  0.61376672  1
  Cl  Cl87  1  0.36246172  0.64126366  0.89544484  1
  Cl  Cl88  1  0.14246370  0.85817342  0.14146735  1
  Cl  Cl89  1  0.13971608  0.85783806  0.35951384  1
  Cl  Cl90  1  0.11215622  0.88833929  0.64671491  1
  Cl  Cl91  1  0.14992283  0.85390260  0.86127740  1
  Cl  Cl92  1  0.64225913  0.85796213  0.14278822  1
  Cl  Cl93  1  0.63537177  0.86165339  0.35417515  1
  Cl  Cl94  1  0.60482038  0.89558599  0.63733171  1
  Cl  Cl95  1  0.64417656  0.85940593  0.85726167  1
  Cs  Cs96  1  0.99182516  0.01660624  0.99870444  1
  Cs  Cs97  1  0.00069218  0.98098746  0.24684776  1
  Cs  Cs98  1  0.99132127  0.01064976  0.48863712  1
  Cs  Cs99  1  0.98789474  0.01139885  0.74539821  1
  Cs  Cs100  1  0.49818142  0.02117164  0.00275195  1
  Cs  Cs101  1  0.50597650  0.98655676  0.25144415  1
  Cs  Cs102  1  0.51241325  0.98879627  0.50502590  1
  Cs  Cs103  1  0.50674509  0.99231695  0.76034403  1
  Cs  Cs104  1  0.25176315  0.26335598  0.00046096  1
  Cs  Cs105  1  0.24597700  0.23108552  0.25096603  1
  Cs  Cs106  1  0.25490520  0.24509345  0.51327150  1
  Cs  Cs107  1  0.26214852  0.23609337  0.75711487  1
  Cs  Cs108  1  0.99861239  0.52091930  0.00275376  1
  Cs  Cs109  1  0.00669278  0.48672695  0.25160176  1
  Cs  Cs110  1  0.01208724  0.48872611  0.50535007  1
  Cs  Cs111  1  0.00660892  0.49221282  0.76048628  1
  Cs  Cs112  1  0.75133448  0.27103233  0.99894017  1
  Cs  Cs113  1  0.74611222  0.23833356  0.25002456  1
  Cs  Cs114  1  0.73644049  0.26712495  0.49292835  1
  Cs  Cs115  1  0.74386907  0.25593753  0.73761589  1
  Cs  Cs116  1  0.49132819  0.51637681  0.99872348  1
  Cs  Cs117  1  0.50017976  0.48126828  0.24717841  1
  Cs  Cs118  1  0.49211170  0.51082964  0.48897835  1
  Cs  Cs119  1  0.48792596  0.51140425  0.74545509  1
  Cs  Cs120  1  0.25189622  0.77110606  0.99881654  1
  Cs  Cs121  1  0.24587046  0.73840459  0.24993132  1
  Cs  Cs122  1  0.23602553  0.76713950  0.49285599  1
  Cs  Cs123  1  0.24389256  0.75595336  0.73755388  1
  Cs  Cs124  1  0.75125893  0.76337316  0.00052537  1
  Cs  Cs125  1  0.74753598  0.73157363  0.25127129  1
  Cs  Cs126  1  0.75517875  0.74531529  0.51334532  1
  Cs  Cs127  1  0.76219421  0.73601323  0.75728479  1
  Pb  Pb128  1  0.99918734  0.25085584  0.12517420  1
  Pb  Pb129  1  0.99685574  0.25110181  0.37453416  1
  Pb  Pb130  1  0.99992621  0.25012760  0.62545791  1
  Pb  Pb131  1  0.00114247  0.25174827  0.87581392  1
  Pb  Pb132  1  0.49938986  0.25061995  0.12524133  1
  Pb  Pb133  1  0.49465623  0.25054209  0.37575703  1
  Pb  Pb134  1  0.49998217  0.25008027  0.62487793  1
  Pb  Pb135  1  0.50338675  0.25129722  0.87450830  1
  Pb  Pb136  1  0.24958127  0.50070461  0.12538536  1
  Pb  Pb137  1  0.24814937  0.49841429  0.37541840  1
  Pb  Pb138  1  0.25001793  0.50011057  0.62541597  1
  Pb  Pb139  1  0.25039872  0.50333255  0.87533215  1
  Pb  Pb140  1  0.99949572  0.75057663  0.12489926  1
  Pb  Pb141  1  0.99472972  0.75043358  0.37581751  1
  Pb  Pb142  1  0.99996860  0.75006695  0.62496624  1
  Pb  Pb143  1  0.00341122  0.75131249  0.87458063  1
  Pb  Pb144  1  0.74955492  0.50072320  0.12533387  1
  Pb  Pb145  1  0.74760210  0.50218418  0.37508960  1
  Pb  Pb146  1  0.74995992  0.50021669  0.62549465  1
  Pb  Pb147  1  0.75015208  0.50042144  0.87564685  1
  Pb  Pb148  1  0.49939935  0.75069289  0.12545395  1
  Pb  Pb149  1  0.49684634  0.75104457  0.37457566  1
  Pb  Pb150  1  0.49992756  0.75009508  0.62545589  1
  Pb  Pb151  1  0.50122468  0.75175979  0.87582685  1
  Pb  Pb152  1  0.24952350  0.00064639  0.12498648  1
  Pb  Pb153  1  0.24759422  0.00220243  0.37501224  1
  Pb  Pb154  1  0.24993206  0.00010515  0.62506897  1
  Pb  Pb155  1  0.25020448  0.00028743  0.87512186  1
  Pb  Pb156  1  0.74948783  0.00062543  0.12500499  1
  Pb  Pb157  1  0.74804362  0.99849252  0.37462711  1
  Pb  Pb158  1  0.75002585  0.00010259  0.62517346  1
  Pb  Pb159  1  0.75041129  0.00339208  0.87525909  1
