# generated using pymatgen
data_CsSnI3
_symmetry_space_group_name_H-M   'P 1'
_cell_length_a   17.73946359
_cell_length_b   17.73946359
_cell_length_c   25.08739100
_cell_angle_alpha   90.00000000
_cell_angle_beta   90.00000000
_cell_angle_gamma   90.00000000
_symmetry_Int_Tables_number   1
_chemical_formula_structural   CsSnI3
_chemical_formula_sum   'Cs32 Sn32 I96'
_cell_volume   7894.71516134
_cell_formula_units_Z   32
loop_
 _symmetry_equiv_pos_site_id
 _symmetry_equiv_pos_as_xyz
  1  'x, y, z'
loop_
 _atom_site_type_symbol
 _atom_site_label
 _atom_site_symmetry_multiplicity
 _atom_site_fract_x
 _atom_site_fract_y
 _atom_site_fract_z
 _atom_site_occupancy
  Cs  Cs0  1  0.97711450  0.22696677  0.13169317  1
  Cs  Cs1  1  0.98533423  0.23805671  0.38949385  1
  Cs  Cs2  1  0.03227953  0.26017640  0.62983986  1
  Cs  Cs3  1  0.98451008  0.23292008  0.88128381  1
  Cs  Cs4  1  0.51405375  0.26392525  0.10719014  1
  Cs  Cs5  1  0.50787531  0.26704657  0.36654978  1
  Cs  Cs6  1  0.51553642  0.26602101  0.62347241  1
  Cs  Cs7  1  0.46623085  0.23608948  0.87237479  1
  Cs  Cs8  1  0.23873287  0.48769151  0.14597323  1
  Cs  Cs9  1  0.22802854  0.48470786  0.38800227  1
  Cs  Cs10  1  0.26178204  0.50658180  0.62671804  1
  Cs  Cs11  1  0.22289999  0.49932621  0.87633903  1
  Cs  Cs12  1  0.01942325  0.76107835  0.10978377  1
  Cs  Cs13  1  0.01157286  0.76763107  0.36790349  1
  Cs  Cs14  1  0.01911543  0.76621285  0.62229129  1
  Cs  Cs15  1  0.96763437  0.74277568  0.86939308  1
  Cs  Cs16  1  0.77244454  0.52251535  0.11413259  1
  Cs  Cs17  1  0.75733358  0.50736966  0.35614538  1
  Cs  Cs18  1  0.77569429  0.50423093  0.62395193  1
  Cs  Cs19  1  0.74027148  0.49633506  0.87477900  1
  Cs  Cs20  1  0.48078782  0.72803839  0.13500146  1
  Cs  Cs21  1  0.48735266  0.73727897  0.39262691  1
  Cs  Cs22  1  0.52845533  0.76288398  0.62888658  1
  Cs  Cs23  1  0.48694454  0.73537411  0.87816650  1
  Cs  Cs24  1  0.27282667  0.02159330  0.11521611  1
  Cs  Cs25  1  0.25748235  0.00459679  0.35423654  1
  Cs  Cs26  1  0.27464100  0.99910466  0.62456821  1
  Cs  Cs27  1  0.22789224  0.00724019  0.87642415  1
  Cs  Cs28  1  0.74083404  -0.00738924  0.14751041  1
  Cs  Cs29  1  0.72651477  0.98248470  0.38677848  1
  Cs  Cs30  1  0.77540837  0.99245591  0.62500614  1
  Cs  Cs31  1  0.72602614  0.00360894  0.87809105  1
  I  I32  1  0.10521999  0.15171082  0.01040103  1
  I  I33  1  0.14546899  0.10739988  0.22957256  1
  I  I34  1  0.10426667  0.14868082  0.50777018  1
  I  I35  1  0.10427735  0.15177200  0.75700816  1
  I  I36  1  0.60645370  0.15306435  0.97818794  1
  I  I37  1  0.64145717  0.10815018  0.27332325  1
  I  I38  1  0.60683094  0.14752408  0.47811943  1
  I  I39  1  0.60375576  0.14982044  0.76793757  1
  I  I40  1  0.39761666  0.36035109  0.98996560  1
  I  I41  1  0.35599867  0.39637836  0.27324228  1
  I  I42  1  0.39925500  0.35328004  0.49292042  1
  I  I43  1  0.40168645  0.35404859  0.74846397  1
  I  I44  1  0.10722881  0.65346124  0.97459442  1
  I  I45  1  0.14225848  0.60655647  0.27190825  1
  I  I46  1  0.10788522  0.64696496  0.48049132  1
  I  I47  1  0.10571854  0.64820669  0.76787463  1
  I  I48  1  0.89663434  0.36401979  0.02114388  1
  I  I49  1  0.85394081  0.39495796  0.22922282  1
  I  I50  1  0.89772475  0.35850838  0.52474262  1
  I  I51  1  0.89457789  0.35965411  0.72808096  1
  I  I52  1  0.60553564  0.65286710  0.01356489  1
  I  I53  1  0.64631218  0.60692294  0.22937126  1
  I  I54  1  0.60669644  0.64532061  0.51164823  1
  I  I55  1  0.60516076  0.65150375  0.75198085  1
  I  I56  1  0.39958048  0.86152524  0.02336361  1
  I  I57  1  0.35761113  0.89184444  0.22728762  1
  I  I58  1  0.39722838  0.85920401  0.52191639  1
  I  I59  1  0.39692495  0.85824319  0.73280827  1
  I  I60  1  0.90216115  0.85422910  0.99348279  1
  I  I61  1  0.85855990  0.89401450  0.27465011  1
  I  I62  1  0.89941147  0.85548149  0.49539588  1
  I  I63  1  0.90163307  0.85643507  0.74235798  1
  I  I64  1  0.85305832  0.11154238  0.98780012  1
  I  I65  1  0.88917309  0.14416463  0.26519721  1
  I  I66  1  0.85223229  0.10533103  0.48252458  1
  I  I67  1  0.84843559  0.10354056  0.76533639  1
  I  I68  1  0.35259148  0.11309581  0.98241039  1
  I  I69  1  0.38718738  0.14038825  0.26891809  1
  I  I70  1  0.34581224  0.09980387  0.48108587  1
  I  I71  1  0.35061051  0.10371932  0.76744249  1
  I  I72  1  0.14777636  0.40675048  0.01436991  1
  I  I73  1  0.10107739  0.35435692  0.22734476  1
  I  I74  1  0.14195070  0.39654591  0.52043161  1
  I  I75  1  0.14600043  0.39832027  0.73438659  1
  I  I76  1  0.85272011  0.61404460  0.98061604  1
  I  I77  1  0.88912382  0.64073910  0.27045398  1
  I  I78  1  0.84879756  0.60206968  0.48220544  1
  I  I79  1  0.85216427  0.60612881  0.76707774  1
  I  I80  1  0.64440665  0.40372694  0.01658421  1
  I  I81  1  0.59825299  0.35360749  0.23641618  1
  I  I82  1  0.64210804  0.39346743  0.52186976  1
  I  I83  1  0.64670265  0.40220594  0.73331840  1
  I  I84  1  0.35336303  0.61209528  0.97985447  1
  I  I85  1  0.39164224  0.64480898  0.26695815  1
  I  I86  1  0.35258966  0.60603651  0.48517245  1
  I  I87  1  0.34918075  0.60444022  0.76757973  1
  I  I88  1  0.14503164  0.90363878  0.01666228  1
  I  I89  1  0.10367608  0.85709930  0.23729222  1
  I  I90  1  0.14246953  0.89458133  0.51872138  1
  I  I91  1  0.14703520  0.90249116  0.73671459  1
  I  I92  1  0.65042400  0.90828312  0.01744281  1
  I  I93  1  0.60560026  0.85778325  0.22820424  1
  I  I94  1  0.64076221  0.89630578  0.51983031  1
  I  I95  1  0.64698195  0.90004010  0.73398983  1
  I  I96  1  0.96138876  -0.00370717  0.12896411  1
  I  I97  1  0.03658134  -0.00235566  0.37669635  1
  I  I98  1  0.99244918  0.02229430  0.62643835  1
  I  I99  1  0.00948490  -0.00607093  0.87801631  1
  I  I100  1  0.50322273  0.04217201  0.12253632  1
  I  I101  1  0.49397164  0.95767248  0.37096366  1
  I  I102  1  0.49669656  0.03907842  0.62168022  1
  I  I103  1  0.50366116  0.96476721  0.87233446  1
  I  I104  1  0.28990810  0.25195800  0.12789356  1
  I  I105  1  0.21318757  0.25564915  0.37616677  1
  I  I106  1  0.26836120  0.22925685  0.62766335  1
  I  I107  1  0.22750940  0.26926712  0.87846772  1
  I  I108  1  0.00311906  0.53980085  0.12165504  1
  I  I109  1  -0.00521163  0.45842394  0.37129464  1
  I  I110  1  0.00059426  0.54060074  0.62193254  1
  I  I111  1  -0.00303659  0.46089945  0.87131697  1
  I  I112  1  0.74267541  0.21394073  0.12878659  1
  I  I113  1  0.75472807  0.28700486  0.37817448  1
  I  I114  1  0.73729243  0.21094991  0.62727419  1
  I  I115  1  0.76359762  0.27984690  0.87715449  1
  I  I116  1  0.46032881  0.49766264  0.12879629  1
  I  I117  1  0.53634309  0.49725830  0.37742474  1
  I  I118  1  0.48030544  0.51585961  0.62699856  1
  I  I119  1  0.52143387  0.49865654  0.87782124  1
  I  I120  1  0.24639981  0.70849705  0.12815695  1
  I  I121  1  0.25368373  0.78528827  0.37753350  1
  I  I122  1  0.24215841  0.72459068  0.62834527  1
  I  I123  1  0.26446261  0.78968115  0.87764501  1
  I  I124  1  0.79359770  0.75205948  0.12862593  1
  I  I125  1  0.71302482  0.75243691  0.37678100  1
  I  I126  1  0.77032380  0.73364731  0.62766848  1
  I  I127  1  0.72624541  0.77230873  0.87881544  1
  Sn  Sn128  1  0.00041335  0.99422748  -0.00000557  1
  Sn  Sn129  1  0.99553127  0.99177202  0.24921134  1
  Sn  Sn130  1  0.00574921  0.99258359  0.49734226  1
  Sn  Sn131  1  0.00466520  0.99601192  0.74645190  1
  Sn  Sn132  1  0.50362923  0.99504575  0.00531984  1
  Sn  Sn133  1  0.49715366  0.98738068  0.25019878  1
  Sn  Sn134  1  0.49967736  0.99509957  0.50457661  1
  Sn  Sn135  1  0.50207830  0.99079885  0.75161556  1
  Sn  Sn136  1  0.24633233  0.25053291  0.99917010  1
  Sn  Sn137  1  0.25171003  0.24138660  0.24712841  1
  Sn  Sn138  1  0.24823256  0.23836766  0.49508095  1
  Sn  Sn139  1  0.25101894  0.24282363  0.74872386  1
  Sn  Sn140  1  0.00243087  0.49680360  0.00371473  1
  Sn  Sn141  1  0.99617329  0.48703926  0.25048394  1
  Sn  Sn142  1  0.00004206  0.49332725  0.50505789  1
  Sn  Sn143  1  0.00057216  0.48986313  0.75080447  1
  Sn  Sn144  1  0.74781130  0.24665146  0.99565980  1
  Sn  Sn145  1  0.74668704  0.24056810  0.25011800  1
  Sn  Sn146  1  0.74672652  0.24229057  0.49622530  1
  Sn  Sn147  1  0.74648362  0.23857311  0.74745085  1
  Sn  Sn148  1  0.50164734  0.49696679  0.99822790  1
  Sn  Sn149  1  0.49469770  0.49180366  0.24848303  1
  Sn  Sn150  1  0.50530445  0.49023453  0.49800979  1
  Sn  Sn151  1  0.50393240  0.49412442  0.74624269  1
  Sn  Sn152  1  0.24930328  0.74629614  0.99400190  1
  Sn  Sn153  1  0.24878434  0.73837734  0.24894957  1
  Sn  Sn154  1  0.24756045  0.74346753  0.49598856  1
  Sn  Sn155  1  0.24772856  0.74045804  0.75068732  1
  Sn  Sn156  1  0.74626479  0.75080472  -0.00076124  1
  Sn  Sn157  1  0.75349062  0.74061221  0.24675740  1
  Sn  Sn158  1  0.74805829  0.73856752  0.49580008  1
  Sn  Sn159  1  0.74981982  0.74404189  0.74868469  1
