# generated using pymatgen
data_CsSnBr3
_symmetry_space_group_name_H-M   'P 1'
_cell_length_a   16.64648298
_cell_length_b   16.64648298
_cell_length_c   23.54168100
_cell_angle_alpha   90.00000000
_cell_angle_beta   90.00000000
_cell_angle_gamma   90.00000000
_symmetry_Int_Tables_number   1
_chemical_formula_structural   CsSnBr3
_chemical_formula_sum   'Cs32 Sn32 Br96'
_cell_volume   6523.52682882
_cell_formula_units_Z   32
loop_
 _symmetry_equiv_pos_site_id
 _symmetry_equiv_pos_as_xyz
  1  'x, y, z'
loop_
 _atom_site_type_symbol
 _atom_site_label
 _atom_site_symmetry_multiplicity
 _atom_site_fract_x
 _atom_site_fract_y
 _atom_site_fract_z
 _atom_site_occupancy
  Br  Br0  1  0.00072831  0.21253814  0.00336015  1
  Br  Br1  1  0.99556299  0.27980995  0.25257691  1
  Br  Br2  1  0.00961305  0.22390827  0.50374440  1
  Br  Br3  1  0.00210094  0.28793458  0.75350357  1
  Br  Br4  1  0.53686375  0.25113421  0.00421504  1
  Br  Br5  1  0.46939597  0.24652972  0.25318631  1
  Br  Br6  1  0.52497688  0.26289027  0.50330633  1
  Br  Br7  1  0.46772788  0.24610731  0.75457288  1
  Br  Br8  1  0.25128402  0.53448637  0.00371198  1
  Br  Br9  1  0.25101564  0.47705016  0.25341237  1
  Br  Br10  1  0.25942624  0.52586166  0.50360520  1
  Br  Br11  1  0.24911829  0.46583987  0.75478414  1
  Br  Br12  1  0.03674555  0.75106283  0.00401064  1
  Br  Br13  1  0.97249031  0.74818170  0.25309826  1
  Br  Br14  1  0.02173029  0.76182452  0.50375939  1
  Br  Br15  1  0.96763969  0.74555477  0.75490737  1
  Br  Br16  1  0.71295798  0.49796819  0.00316962  1
  Br  Br17  1  0.78507801  0.49289936  0.25254414  1
  Br  Br18  1  0.72027001  0.50553063  0.50321546  1
  Br  Br19  1  0.78953212  0.50046140  0.75331746  1
  Br  Br20  1  0.50077929  0.71285940  0.00346851  1
  Br  Br21  1  0.49399060  0.77981443  0.25261472  1
  Br  Br22  1  0.51122246  0.72375219  0.50387194  1
  Br  Br23  1  0.50208085  0.78784476  0.75372090  1
  Br  Br24  1  0.21302601  -0.00152340  0.00317046  1
  Br  Br25  1  0.28214823  0.99091814  0.25305175  1
  Br  Br26  1  0.22155536  0.00382740  0.50379513  1
  Br  Br27  1  0.28999146  0.00093503  0.75349582  1
  Br  Br28  1  0.75140378  0.03480119  0.00385271  1
  Br  Br29  1  0.74996603  0.97578935  0.25320251  1
  Br  Br30  1  0.75996532  0.02257889  0.50364848  1
  Br  Br31  1  0.74793177  0.96629307  0.75497479  1
  Br  Br32  1  0.13100639  0.13752807  0.14082512  1
  Br  Br33  1  0.14083958  0.14817837  0.35764180  1
  Br  Br34  1  0.14583486  0.15298795  0.63725998  1
  Br  Br35  1  0.10490793  0.11457738  0.85121574  1
  Br  Br36  1  0.62888661  0.13433593  0.14470357  1
  Br  Br37  1  0.64014736  0.14965266  0.35819010  1
  Br  Br38  1  0.64090204  0.14976314  0.63530268  1
  Br  Br39  1  0.59972935  0.10877359  0.86419319  1
  Br  Br40  1  0.35674903  0.36401193  0.10926876  1
  Br  Br41  1  0.34860777  0.35852998  0.38795139  1
  Br  Br42  1  0.35200749  0.36021545  0.60845968  1
  Br  Br43  1  0.38943086  0.39747998  0.88974554  1
  Br  Br44  1  0.12938868  0.63535020  0.14349335  1
  Br  Br45  1  0.14031343  0.64995309  0.35865113  1
  Br  Br46  1  0.14105195  0.64949132  0.63553579  1
  Br  Br47  1  0.10039480  0.60901295  0.86419763  1
  Br  Br48  1  0.85095314  0.35729520  0.10732614  1
  Br  Br49  1  0.85080537  0.35857215  0.38825178  1
  Br  Br50  1  0.85079437  0.36125666  0.60722975  1
  Br  Br51  1  0.88602029  0.39455581  0.89308001  1
  Br  Br52  1  0.63007680  0.63708194  0.14111350  1
  Br  Br53  1  0.64092938  0.64854097  0.35727258  1
  Br  Br54  1  0.64738307  0.65412472  0.63839227  1
  Br  Br55  1  0.60514609  0.61522027  0.85260122  1
  Br  Br56  1  0.35140855  0.85830623  0.10710869  1
  Br  Br57  1  0.34955625  0.85749935  0.38846284  1
  Br  Br58  1  0.35195168  0.86119451  0.60819269  1
  Br  Br59  1  0.38545747  0.89466290  0.89338478  1
  Br  Br60  1  0.85629363  0.86321165  0.10863364  1
  Br  Br61  1  0.84823030  0.85767735  0.38677353  1
  Br  Br62  1  0.85293553  0.86103270  0.61087141  1
  Br  Br63  1  0.88918192  0.89775494  0.88928045  1
  Br  Br64  1  0.89139978  0.11363160  0.14106438  1
  Br  Br65  1  0.89927712  0.11122608  0.36430735  1
  Br  Br66  1  0.90377046  0.10908262  0.63869625  1
  Br  Br67  1  0.86235404  0.14711544  0.85402342  1
  Br  Br68  1  0.39084577  0.11512654  0.10612307  1
  Br  Br69  1  0.40221516  0.10869363  0.38719829  1
  Br  Br70  1  0.40152602  0.11154808  0.60703961  1
  Br  Br71  1  0.36233397  0.14744828  0.89417646  1
  Br  Br72  1  0.11651018  0.38865239  0.10813858  1
  Br  Br73  1  0.10977976  0.39971058  0.38341883  1
  Br  Br74  1  0.11248915  0.39975988  0.60985058  1
  Br  Br75  1  0.14886168  0.36040962  0.89414969  1
  Br  Br76  1  0.89140861  0.61437060  0.10687963  1
  Br  Br77  1  0.90185806  0.60849892  0.38613471  1
  Br  Br78  1  0.90105615  0.61110083  0.60807114  1
  Br  Br79  1  0.86307065  0.64684755  0.89446562  1
  Br  Br80  1  0.61705338  0.38813966  0.14271571  1
  Br  Br81  1  0.61424449  0.39612087  0.35924105  1
  Br  Br82  1  0.61154931  0.40044348  0.64110715  1
  Br  Br83  1  0.64987728  0.36148478  0.85444460  1
  Br  Br84  1  0.38895460  0.61604758  0.14077347  1
  Br  Br85  1  0.40048442  0.60972942  0.36472134  1
  Br  Br86  1  0.40509131  0.60810010  0.63868380  1
  Br  Br87  1  0.36317937  0.64609314  0.85514987  1
  Br  Br88  1  0.11655031  0.88873151  0.14192975  1
  Br  Br89  1  0.11227628  0.89768568  0.36416526  1
  Br  Br90  1  0.11322280  0.89885678  0.64078927  1
  Br  Br91  1  0.14988617  0.86146244  0.85429864  1
  Br  Br92  1  0.61680604  0.88858441  0.10753965  1
  Br  Br93  1  0.60932541  0.89956441  0.38291298  1
  Br  Br94  1  0.61270048  0.89931554  0.61009713  1
  Br  Br95  1  0.64890386  0.86068090  0.89448946  1
  Cs  Cs96  1  0.99037447  0.98938759  0.01470723  1
  Cs  Cs97  1  0.00534319  0.00419400  0.25015651  1
  Cs  Cs98  1  0.98929124  0.99067356  0.50064628  1
  Cs  Cs99  1  0.98411016  0.98247125  0.75725890  1
  Cs  Cs100  1  0.51319476  0.01135826  -0.00510901  1
  Cs  Cs101  1  0.51193162  0.01201725  0.25398270  1
  Cs  Cs102  1  0.47952645  0.97376731  0.49800326  1
  Cs  Cs103  1  0.51324650  0.01272010  0.73586553  1
  Cs  Cs104  1  0.23574855  0.23431320  0.01036973  1
  Cs  Cs105  1  0.24896363  0.25630410  0.24560935  1
  Cs  Cs106  1  0.24301770  0.23489823  0.49919809  1
  Cs  Cs107  1  0.24387443  0.24306408  0.76334225  1
  Cs  Cs108  1  0.01326263  0.51141860  -0.00514229  1
  Cs  Cs109  1  0.01342382  0.51233797  0.25391640  1
  Cs  Cs110  1  0.97911307  0.47527054  0.49788051  1
  Cs  Cs111  1  0.01308132  0.51250564  0.73616171  1
  Cs  Cs112  1  0.75853327  0.25728171  0.98249071  1
  Cs  Cs113  1  0.76148939  0.26012553  0.24614380  1
  Cs  Cs114  1  0.74400834  0.24281627  0.49708939  1
  Cs  Cs115  1  0.76631363  0.26582760  0.73850513  1
  Cs  Cs116  1  0.49047254  0.48978174  0.01466850  1
  Cs  Cs117  1  0.49979970  0.50114848  0.24899535  1
  Cs  Cs118  1  0.48845476  0.49041362  0.49990053  1
  Cs  Cs119  1  0.48468808  0.48322622  0.75819940  1
  Cs  Cs120  1  0.25866609  0.75714393  0.98311143  1
  Cs  Cs121  1  0.26094960  0.75923916  0.24561998  1
  Cs  Cs122  1  0.24079022  0.74611451  0.49825017  1
  Cs  Cs123  1  0.26702582  0.76480357  0.73920690  1
  Cs  Cs124  1  0.73503823  0.73296475  0.01018918  1
  Cs  Cs125  1  0.75064210  0.75505775  0.24531021  1
  Cs  Cs126  1  0.74365964  0.73720855  0.50026755  1
  Cs  Cs127  1  0.74426118  0.74340921  0.76532428  1
  Sn  Sn128  1  -0.00179344  0.24414687  0.12221813  1
  Sn  Sn129  1  0.00249811  0.24638177  0.37084873  1
  Sn  Sn130  1  0.00501591  0.24411870  0.62405396  1
  Sn  Sn131  1  0.99953444  0.24560206  0.86999159  1
  Sn  Sn132  1  0.50159239  0.24357508  0.12242955  1
  Sn  Sn133  1  0.50074181  0.24563025  0.37196436  1
  Sn  Sn134  1  0.50173929  0.24780474  0.62171686  1
  Sn  Sn135  1  0.49771744  0.24489515  0.87381153  1
  Sn  Sn136  1  0.24737805  0.49748477  0.12154852  1
  Sn  Sn137  1  0.24961090  0.49521572  0.37409951  1
  Sn  Sn138  1  0.25137171  0.49555717  0.62161182  1
  Sn  Sn139  1  0.25061949  0.49364333  0.87453380  1
  Sn  Sn140  1  0.00132497  0.74397430  0.12230303  1
  Sn  Sn141  1  0.00045036  0.74567330  0.37211748  1
  Sn  Sn142  1  0.00144771  0.74712344  0.62248754  1
  Sn  Sn143  1  0.99815152  0.74492408  0.87404653  1
  Sn  Sn144  1  0.74869595  0.49210581  0.12138749  1
  Sn  Sn145  1  0.75072605  0.49549394  0.37042587  1
  Sn  Sn146  1  0.74720025  0.49836430  0.62242017  1
  Sn  Sn147  1  0.75303979  0.49497543  0.87114800  1
  Sn  Sn148  1  0.49826029  0.74471727  0.12242802  1
  Sn  Sn149  1  0.50256682  0.74577450  0.37085307  1
  Sn  Sn150  1  0.50576053  0.74357653  0.62422271  1
  Sn  Sn151  1  0.49939811  0.74615068  0.87040402  1
  Sn  Sn152  1  0.24866980  0.99248165  0.12124436  1
  Sn  Sn153  1  0.25074700  0.99505337  0.37141746  1
  Sn  Sn154  1  0.24828686  0.99801691  0.62309606  1
  Sn  Sn155  1  0.25258596  0.99532524  0.87131373  1
  Sn  Sn156  1  0.74756995  -0.00282881  0.12166716  1
  Sn  Sn157  1  0.74931972  0.99454467  0.37342123  1
  Sn  Sn158  1  0.75111392  0.99566891  0.62208214  1
  Sn  Sn159  1  0.75043009  0.99415655  0.87474315  1
