# generated using pymatgen
data_CsSnF3
_symmetry_space_group_name_H-M   'P 1'
_cell_length_a   13.53146124
_cell_length_b   13.53146124
_cell_length_c   19.13637700
_cell_angle_alpha   90.00000000
_cell_angle_beta   90.00000000
_cell_angle_gamma   90.00000000
_symmetry_Int_Tables_number   1
_chemical_formula_structural   CsSnF3
_chemical_formula_sum   'Cs32 Sn32 F96'
_cell_volume   3503.87911007
_cell_formula_units_Z   32
loop_
 _symmetry_equiv_pos_site_id
 _symmetry_equiv_pos_as_xyz
  1  'x, y, z'
loop_
 _atom_site_type_symbol
 _atom_site_label
 _atom_site_symmetry_multiplicity
 _atom_site_fract_x
 _atom_site_fract_y
 _atom_site_fract_z
 _atom_site_occupancy
  Cs  Cs0  1  0.00181047  0.99050182  0.00551519  1
  Cs  Cs1  1  0.00072128  0.00406925  0.25605029  1
  Cs  Cs2  1  0.00773824  0.00231541  0.50452150  1
  Cs  Cs3  1  0.00774066  0.00002490  0.75609893  1
  Cs  Cs4  1  0.49944787  0.98803629  0.00786245  1
  Cs  Cs5  1  0.50026649  0.99352920  0.26043835  1
  Cs  Cs6  1  0.50007807  0.99165113  0.50901309  1
  Cs  Cs7  1  0.50623963  0.99365031  0.74830296  1
  Cs  Cs8  1  0.25690305  0.24839740  0.98555337  1
  Cs  Cs9  1  0.24642126  0.25286011  0.24062127  1
  Cs  Cs10  1  0.24253487  0.26485732  0.48339902  1
  Cs  Cs11  1  0.24715016  0.25315529  0.73840439  1
  Cs  Cs12  1  0.00444586  0.50085097  0.98752808  1
  Cs  Cs13  1  0.00283254  0.49703066  0.23777029  1
  Cs  Cs14  1  0.99431472  0.50723594  0.48952926  1
  Cs  Cs15  1  0.00160430  0.49495861  0.74377009  1
  Cs  Cs16  1  0.74946993  0.26017664  0.00050863  1
  Cs  Cs17  1  0.75750910  0.26086891  0.24854711  1
  Cs  Cs18  1  0.74400559  0.23882520  0.50074799  1
  Cs  Cs19  1  0.76444087  0.24354743  0.76127025  1
  Cs  Cs20  1  0.50059643  0.49076508  0.99568681  1
  Cs  Cs21  1  0.50005189  0.49086320  0.23951677  1
  Cs  Cs22  1  0.48964966  0.49152657  0.49070148  1
  Cs  Cs23  1  0.51517909  0.50481194  0.75115264  1
  Cs  Cs24  1  0.24422673  0.74902916  0.00395237  1
  Cs  Cs25  1  0.25110989  0.76497150  0.25520994  1
  Cs  Cs26  1  0.23323922  0.75510843  0.49945257  1
  Cs  Cs27  1  0.24328485  0.74459816  0.74495782  1
  Cs  Cs28  1  0.73586119  0.74775536  0.00312074  1
  Cs  Cs29  1  0.73034650  0.74343455  0.25473471  1
  Cs  Cs30  1  0.75552701  0.75711710  0.50436677  1
  Cs  Cs31  1  0.75801615  0.76232532  0.76155614  1
  Sn  Sn32  1  0.98869582  0.23706698  0.12393722  1
  Sn  Sn33  1  0.00083523  0.26210978  0.37294232  1
  Sn  Sn34  1  0.00377932  0.25770414  0.62112950  1
  Sn  Sn35  1  0.01565111  0.24727145  0.87749868  1
  Sn  Sn36  1  0.50971901  0.24843544  0.12667209  1
  Sn  Sn37  1  0.50037088  0.25051626  0.37623525  1
  Sn  Sn38  1  0.48156555  0.24018567  0.62200434  1
  Sn  Sn39  1  0.50400821  0.25315277  0.86554000  1
  Sn  Sn40  1  0.23584611  0.49042289  0.10627653  1
  Sn  Sn41  1  0.24866011  0.51417740  0.35405163  1
  Sn  Sn42  1  0.24978666  0.50948073  0.60526932  1
  Sn  Sn43  1  0.25779463  0.50502991  0.85540276  1
  Sn  Sn44  1  0.99217569  0.75577406  0.12469964  1
  Sn  Sn45  1  0.99441919  0.75746231  0.36441861  1
  Sn  Sn46  1  0.98133185  0.74072778  0.61972663  1
  Sn  Sn47  1  0.00518498  0.75743713  0.87155991  1
  Sn  Sn48  1  0.75445329  0.51332819  0.12166015  1
  Sn  Sn49  1  0.74531793  0.50119062  0.37627519  1
  Sn  Sn50  1  0.73802010  0.47990039  0.62295460  1
  Sn  Sn51  1  0.75683917  0.50431410  0.87285124  1
  Sn  Sn52  1  0.47823399  0.73610462  0.13104755  1
  Sn  Sn53  1  0.50053726  0.75152316  0.38874670  1
  Sn  Sn54  1  0.50802640  0.74759719  0.63017604  1
  Sn  Sn55  1  0.49495602  0.75323590  0.87736496  1
  Sn  Sn56  1  0.25458837  0.00931276  0.13218564  1
  Sn  Sn57  1  0.25507113  0.01174677  0.38142085  1
  Sn  Sn58  1  0.23738981  0.99294572  0.62983474  1
  Sn  Sn59  1  0.26188617  0.99792259  0.87960767  1
  Sn  Sn60  1  0.73380615  0.98784584  0.13630556  1
  Sn  Sn61  1  0.75735857  0.00526713  0.38383100  1
  Sn  Sn62  1  0.76069103  0.01106782  0.63736711  1
  Sn  Sn63  1  0.75285677  0.00633283  0.88835358  1
  F  F64  1  0.02385305  0.21707926  0.01520200  1
  F  F65  1  0.00187591  0.25862193  0.26047103  1
  F  F66  1  0.97569202  0.23755845  0.51270633  1
  F  F67  1  0.00707005  0.23979888  0.76597830  1
  F  F68  1  0.50648753  0.22361586  0.01692087  1
  F  F69  1  0.53472510  0.24819952  0.26734845  1
  F  F70  1  0.45465980  0.20962655  0.51424087  1
  F  F71  1  0.54355719  0.28063920  0.76072475  1
  F  F72  1  0.25975873  0.47913788  0.96519716  1
  F  F73  1  0.26395563  0.47938754  0.21487385  1
  F  F74  1  0.23993565  0.49461576  0.46411773  1
  F  F75  1  0.23347577  0.47845328  0.71369555  1
  F  F76  1  0.01253295  0.74924235  0.98239894  1
  F  F77  1  0.95011077  0.71287838  0.22756848  1
  F  F78  1  0.00846314  0.75340934  0.47562858  1
  F  F79  1  0.99825951  0.72700865  0.72949183  1
  F  F80  1  0.74020662  0.50390267  0.01038533  1
  F  F81  1  0.73157285  0.49354477  0.26441610  1
  F  F82  1  0.76627838  0.46901675  0.51244006  1
  F  F83  1  0.76452546  0.47633700  0.76130507  1
  F  F84  1  0.47940819  0.75142313  0.02111352  1
  F  F85  1  0.48714295  0.76443795  0.27858759  1
  F  F86  1  0.54275507  0.69822066  0.52553743  1
  F  F87  1  0.47711194  0.74909120  0.76566604  1
  F  F88  1  0.23578576  0.98114813  0.02178149  1
  F  F89  1  0.25814741  0.99352127  0.26929373  1
  F  F90  1  0.24785520  0.98261616  0.51854358  1
  F  F91  1  0.25031526  0.97925347  0.77008669  1
  F  F92  1  0.72196558  0.97443353  0.02495357  1
  F  F93  1  0.77611111  0.98831552  0.27408859  1
  F  F94  1  0.76567811  0.98434640  0.52702231  1
  F  F95  1  0.77324687  0.99372151  0.77743006  1
  F  F96  1  0.09589052  0.12577836  0.14087234  1
  F  F97  1  0.09667075  0.13539488  0.36763900  1
  F  F98  1  0.13463266  0.17293440  0.60506423  1
  F  F99  1  0.13522338  0.14238290  0.86681135  1
  F  F100  1  0.64609173  0.17283857  0.12416103  1
  F  F101  1  0.58358368  0.11809551  0.38467479  1
  F  F102  1  0.59573093  0.13201157  0.61381661  1
  F  F103  1  0.60846287  0.13380708  0.85924674  1
  F  F104  1  0.33526105  0.37092076  0.09790293  1
  F  F105  1  0.36675840  0.40933351  0.35686105  1
  F  F106  1  0.34874418  0.38672222  0.59767479  1
  F  F107  1  0.36334558  0.38766640  0.84643779  1
  F  F108  1  0.11693260  0.66110133  0.13966948  1
  F  F109  1  0.07893253  0.62248140  0.36662304  1
  F  F110  1  0.09727132  0.63460539  0.61470494  1
  F  F111  1  0.12308149  0.65296119  0.87676279  1
  F  F112  1  0.86671361  0.40295737  0.11034814  1
  F  F113  1  0.87370153  0.41233766  0.35910980  1
  F  F114  1  0.82058656  0.34757973  0.63026570  1
  F  F115  1  0.86124823  0.38556235  0.88300388  1
  F  F116  1  0.59303899  0.62709049  0.11608910  1
  F  F117  1  0.57702952  0.61786941  0.36296271  1
  F  F118  1  0.63035586  0.66312113  0.66009742  1
  F  F119  1  0.61205299  0.64626173  0.86433364  1
  F  F120  1  0.35770319  0.88876154  0.12907407  1
  F  F121  1  0.37080083  0.90301105  0.38259692  1
  F  F122  1  0.32284617  0.86271796  0.62764211  1
  F  F123  1  0.33291938  0.85404788  0.87632152  1
  F  F124  1  0.81976865  0.85577117  0.13183659  1
  F  F125  1  0.87863737  0.90557209  0.39499617  1
  F  F126  1  0.86926238  0.89831495  0.64686466  1
  F  F127  1  0.84709021  0.87883718  0.89790442  1
  F  F128  1  0.86837727  0.06531113  0.12120145  1
  F  F129  1  0.88254920  0.15902520  0.36404890  1
  F  F130  1  0.92985054  0.11941556  0.63119290  1
  F  F131  1  0.91778912  0.12360491  0.87659196  1
  F  F132  1  0.44212085  0.10777596  0.13443120  1
  F  F133  1  0.38043811  0.15780153  0.34745786  1
  F  F134  1  0.37443511  0.06896035  0.63066626  1
  F  F135  1  0.39732393  0.15038864  0.82796816  1
  F  F136  1  0.10663188  0.34015322  0.12530031  1
  F  F137  1  0.15373503  0.38861954  0.34770417  1
  F  F138  1  0.13539975  0.40451364  0.58991059  1
  F  F139  1  0.14706497  0.39106602  0.85510605  1
  F  F140  1  0.90990375  0.63129150  0.09193916  1
  F  F141  1  0.86752643  0.66920543  0.37958822  1
  F  F142  1  0.87148537  0.56154796  0.62523445  1
  F  F143  1  0.91246049  0.63014111  0.87077368  1
  F  F144  1  0.64941755  0.39531533  0.12061794  1
  F  F145  1  0.66550635  0.36530963  0.37810320  1
  F  F146  1  0.58800410  0.34437717  0.58728196  1
  F  F147  1  0.64821761  0.38932863  0.87908117  1
  F  F148  1  0.36190404  0.58342147  0.10018570  1
  F  F149  1  0.37245084  0.66157052  0.39346889  1
  F  F150  1  0.42040991  0.61899500  0.63805793  1
  F  F151  1  0.40466429  0.62491546  0.88476714  1
  F  F152  1  0.14683006  0.90023205  0.14989236  1
  F  F153  1  0.15491404  0.88987403  0.37997489  1
  F  F154  1  0.09469214  0.84819784  0.62162231  1
  F  F155  1  0.13142771  0.91482361  0.88577363  1
  F  F156  1  0.59275622  0.84362189  0.13008904  1
  F  F157  1  0.66609152  0.87700781  0.37737892  1
  F  F158  1  0.65610478  0.89381047  0.64132413  1
  F  F159  1  0.63837636  0.90133679  0.87266952  1
