# generated using pymatgen
data_CsSnCl3
_symmetry_space_group_name_H-M   'P 1'
_cell_length_a   15.89701343
_cell_length_b   15.89701343
_cell_length_c   22.48177300
_cell_angle_alpha   90.00000000
_cell_angle_beta   90.00000000
_cell_angle_gamma   90.00000000
_symmetry_Int_Tables_number   1
_chemical_formula_structural   CsSnCl3
_chemical_formula_sum   'Cs32 Sn32 Cl96'
_cell_volume   5681.48207596
_cell_formula_units_Z   32
loop_
 _symmetry_equiv_pos_site_id
 _symmetry_equiv_pos_as_xyz
  1  'x, y, z'
loop_
 _atom_site_type_symbol
 _atom_site_label
 _atom_site_symmetry_multiplicity
 _atom_site_fract_x
 _atom_site_fract_y
 _atom_site_fract_z
 _atom_site_occupancy
  Cl  Cl0  1  0.03951299  0.24866310  0.00750045  1
  Cl  Cl1  1  0.96658633  0.24392020  0.25696373  1
  Cl  Cl2  1  0.03586782  0.24416421  0.50818181  1
  Cl  Cl3  1  0.97006411  0.25734277  0.75789070  1
  Cl  Cl4  1  0.51975010  0.26433094  0.00783787  1
  Cl  Cl5  1  0.47705696  0.23391247  0.25661208  1
  Cl  Cl6  1  0.52398877  0.25553220  0.50655827  1
  Cl  Cl7  1  0.48897289  0.24812499  0.75715949  1
  Cl  Cl8  1  0.22262118  0.49621064  0.00679950  1
  Cl  Cl9  1  0.27249886  0.50120367  0.25728999  1
  Cl  Cl10  1  0.22736388  0.48605301  0.50766586  1
  Cl  Cl11  1  0.27574224  0.52590899  0.75763627  1
  Cl  Cl12  1  0.02235828  0.76428132  0.00819367  1
  Cl  Cl13  1  0.97693625  0.73479179  0.25705013  1
  Cl  Cl14  1  0.02355997  0.75559590  0.50699533  1
  Cl  Cl15  1  0.98829204  0.74792336  0.75747824  1
  Cl  Cl16  1  0.71753572  0.50650957  0.00804253  1
  Cl  Cl17  1  0.78281237  0.48705175  0.25773502  1
  Cl  Cl18  1  0.72077478  0.50633817  0.50698065  1
  Cl  Cl19  1  0.78778976  0.50228986  0.75754646  1
  Cl  Cl20  1  0.53886931  0.74835222  0.00745490  1
  Cl  Cl21  1  0.46642171  0.74428898  0.25694061  1
  Cl  Cl22  1  0.53514656  0.74374752  0.50803357  1
  Cl  Cl23  1  0.47092732  0.75721441  0.75781073  1
  Cl  Cl24  1  0.21744186  0.00656203  0.00821779  1
  Cl  Cl25  1  0.28266694  0.98710840  0.25795863  1
  Cl  Cl26  1  0.22074288  0.00689683  0.50713199  1
  Cl  Cl27  1  0.28854533  0.00282733  0.75756697  1
  Cl  Cl28  1  0.72237350  0.99610999  0.00680828  1
  Cl  Cl29  1  0.77347164  0.99959575  0.25715701  1
  Cl  Cl30  1  0.72688453  0.98638108  0.50754946  1
  Cl  Cl31  1  0.77450495  0.02429496  0.75760639  1
  Cl  Cl32  1  0.12232784  0.11124966  0.14471652  1
  Cl  Cl33  1  0.13006693  0.14022987  0.35441062  1
  Cl  Cl34  1  0.13609196  0.14422789  0.64327392  1
  Cl  Cl35  1  0.12463876  0.10718961  0.85357939  1
  Cl  Cl36  1  0.60259226  0.12672561  0.13106684  1
  Cl  Cl37  1  0.63577008  0.14184866  0.36479963  1
  Cl  Cl38  1  0.64117940  0.14553480  0.63127206  1
  Cl  Cl39  1  0.61649559  0.10852906  0.86882738  1
  Cl  Cl40  1  0.38488835  0.41008285  0.11218380  1
  Cl  Cl41  1  0.35059788  0.35614215  0.38139088  1
  Cl  Cl42  1  0.35248946  0.35629060  0.61978318  1
  Cl  Cl43  1  0.40770187  0.39886483  0.87761850  1
  Cl  Cl44  1  0.10227664  0.62638260  0.13179783  1
  Cl  Cl45  1  0.13425363  0.64060690  0.36608203  1
  Cl  Cl46  1  0.14053720  0.64469578  0.63126410  1
  Cl  Cl47  1  0.11640700  0.60843970  0.86865053  1
  Cl  Cl48  1  0.90370511  0.39145350  0.10409126  1
  Cl  Cl49  1  0.84822312  0.35707092  0.39208795  1
  Cl  Cl50  1  0.85010031  0.35829219  0.60327652  1
  Cl  Cl51  1  0.90819061  0.39182954  0.89103536  1
  Cl  Cl52  1  0.62247839  0.61148510  0.14449800  1
  Cl  Cl53  1  0.62949687  0.63989074  0.35427858  1
  Cl  Cl54  1  0.63695681  0.64517911  0.64282776  1
  Cl  Cl55  1  0.62503667  0.60777199  0.85379044  1
  Cl  Cl56  1  0.40424816  0.89190438  0.10447894  1
  Cl  Cl57  1  0.34808132  0.85717868  0.39241040  1
  Cl  Cl58  1  0.35023661  0.85853874  0.60337152  1
  Cl  Cl59  1  0.40817707  0.89177369  0.89096108  1
  Cl  Cl60  1  0.88553490  0.91057640  0.11162456  1
  Cl  Cl61  1  0.84958349  0.85539697  0.38212589  1
  Cl  Cl62  1  0.85247889  0.85655111  0.61996075  1
  Cl  Cl63  1  0.90782659  0.89881015  0.87793000  1
  Cl  Cl64  1  0.85016543  0.14423247  0.10528303  1
  Cl  Cl65  1  0.88510257  0.09163547  0.38903662  1
  Cl  Cl66  1  0.88543473  0.09119465  0.60700500  1
  Cl  Cl67  1  0.84934307  0.14461016  0.89373987  1
  Cl  Cl68  1  0.35228062  0.14037125  0.11128776  1
  Cl  Cl69  1  0.38623967  0.09193281  0.38952558  1
  Cl  Cl70  1  0.38751276  0.09329970  0.60787993  1
  Cl  Cl71  1  0.36725632  0.16239530  0.88794475  1
  Cl  Cl72  1  0.13395898  0.36113944  0.14120309  1
  Cl  Cl73  1  0.10112697  0.37632108  0.35756239  1
  Cl  Cl74  1  0.09968530  0.37990937  0.63680937  1
  Cl  Cl75  1  0.13638006  0.35826426  0.85396122  1
  Cl  Cl76  1  0.85268179  0.64010596  0.11109774  1
  Cl  Cl77  1  0.88600789  0.59180393  0.38952886  1
  Cl  Cl78  1  0.88818930  0.59251343  0.60766570  1
  Cl  Cl79  1  0.86795167  0.66216861  0.88879789  1
  Cl  Cl80  1  0.63080289  0.36196364  0.14072158  1
  Cl  Cl81  1  0.60084699  0.37646584  0.35811786  1
  Cl  Cl82  1  0.60182380  0.38041821  0.63648529  1
  Cl  Cl83  1  0.65573975  0.37256047  0.86248131  1
  Cl  Cl84  1  0.35049379  0.64404511  0.10541776  1
  Cl  Cl85  1  0.38404349  0.59281851  0.38918295  1
  Cl  Cl86  1  0.38546830  0.59121088  0.60709310  1
  Cl  Cl87  1  0.34975584  0.64443918  0.89414913  1
  Cl  Cl88  1  0.13162739  0.86107050  0.14193439  1
  Cl  Cl89  1  0.10088482  0.87599363  0.35934647  1
  Cl  Cl90  1  0.10227198  0.87969874  0.63686337  1
  Cl  Cl91  1  0.15621934  0.87220406  0.86162775  1
  Cl  Cl92  1  0.63454925  0.86059016  0.14087469  1
  Cl  Cl93  1  0.60113972  0.87659761  0.35740751  1
  Cl  Cl94  1  0.59908294  0.88048154  0.63618007  1
  Cl  Cl95  1  0.63647450  0.85815177  0.85474270  1
  Cs  Cs96  1  0.99480214  0.02453391  0.99779940  1
  Cs  Cs97  1  0.99850171  0.00407979  0.25179526  1
  Cs  Cs98  1  0.99993369  0.97963091  0.49860103  1
  Cs  Cs99  1  0.99953504  0.00458515  0.74574260  1
  Cs  Cs100  1  0.49855396  0.03011260  0.99977312  1
  Cs  Cs101  1  0.50453978  0.00055021  0.24556712  1
  Cs  Cs102  1  0.49801604  0.97129223  0.49883894  1
  Cs  Cs103  1  0.51057670  0.99909217  0.75361880  1
  Cs  Cs104  1  0.25935893  0.27350726  0.00182901  1
  Cs  Cs105  1  0.25077977  0.25030334  0.24948450  1
  Cs  Cs106  1  0.25993185  0.23159764  0.50137042  1
  Cs  Cs107  1  0.26123773  0.24317247  0.75215539  1
  Cs  Cs108  1  0.99881658  0.53011250  0.99987371  1
  Cs  Cs109  1  0.00456322  0.50079629  0.24612264  1
  Cs  Cs110  1  0.99866505  0.47140654  0.49862204  1
  Cs  Cs111  1  0.00967657  0.49892681  0.75345556  1
  Cs  Cs112  1  0.74897240  0.27771637  0.00052339  1
  Cs  Cs113  1  0.74435499  0.25154726  0.25138639  1
  Cs  Cs114  1  0.75102897  0.22079850  0.49875959  1
  Cs  Cs115  1  0.74827361  0.25423256  0.74710414  1
  Cs  Cs116  1  0.49475312  0.52392658  0.99819765  1
  Cs  Cs117  1  0.49758187  0.50521193  0.25134979  1
  Cs  Cs118  1  0.49964983  0.47992257  0.49794717  1
  Cs  Cs119  1  0.50013172  0.50497707  0.74590452  1
  Cs  Cs120  1  0.25056271  0.77848759  0.00040755  1
  Cs  Cs121  1  0.24410686  0.75117770  0.25351871  1
  Cs  Cs122  1  0.25056344  0.72113857  0.49910035  1
  Cs  Cs123  1  0.24903208  0.75478482  0.74611255  1
  Cs  Cs124  1  0.75858036  0.77302220  0.00202072  1
  Cs  Cs125  1  0.75078440  0.75015993  0.24965578  1
  Cs  Cs126  1  0.75906289  0.73152847  0.50229584  1
  Cs  Cs127  1  0.76110890  0.74327574  0.75286620  1
  Sn  Sn128  1  0.00394248  0.25913338  0.12216883  1
  Sn  Sn129  1  0.00081820  0.24349679  0.37182378  1
  Sn  Sn130  1  0.00509177  0.24460975  0.62441896  1
  Sn  Sn131  1  0.00512579  0.25852278  0.87323904  1
  Sn  Sn132  1  0.49994275  0.25901076  0.12605414  1
  Sn  Sn133  1  0.50165748  0.24314365  0.37355963  1
  Sn  Sn134  1  0.50564267  0.24527440  0.62448743  1
  Sn  Sn135  1  0.50334897  0.26093203  0.87517252  1
  Sn  Sn136  1  0.25097246  0.51114473  0.12242587  1
  Sn  Sn137  1  0.25148558  0.49156871  0.37443348  1
  Sn  Sn138  1  0.25252923  0.49235615  0.62432268  1
  Sn  Sn139  1  0.25279086  0.51142958  0.87442235  1
  Sn  Sn140  1  0.00048932  0.75905538  0.12613005  1
  Sn  Sn141  1  0.00066340  0.74299228  0.37409099  1
  Sn  Sn142  1  0.00533951  0.74494463  0.62472958  1
  Sn  Sn143  1  0.00384298  0.76093847  0.87537128  1
  Sn  Sn144  1  0.74919430  0.50755735  0.12417635  1
  Sn  Sn145  1  0.75336164  0.49178144  0.37433195  1
  Sn  Sn146  1  0.75470059  0.49328161  0.62161440  1
  Sn  Sn147  1  0.75503501  0.50660074  0.87283999  1
  Sn  Sn148  1  0.50393115  0.75913876  0.12231312  1
  Sn  Sn149  1  0.50080390  0.74378922  0.37183704  1
  Sn  Sn150  1  0.50510598  0.74459298  0.62439394  1
  Sn  Sn151  1  0.50507514  0.75825993  0.87341905  1
  Sn  Sn152  1  0.24906522  0.00752045  0.12440991  1
  Sn  Sn153  1  0.25343047  0.99215093  0.37462794  1
  Sn  Sn154  1  0.25453535  0.99358691  0.62185381  1
  Sn  Sn155  1  0.25488349  0.00655941  0.87272262  1
  Sn  Sn156  1  0.75134538  0.01082065  0.12235376  1
  Sn  Sn157  1  0.75172803  0.99150700  0.37424618  1
  Sn  Sn158  1  0.75229632  0.99249107  0.62415882  1
  Sn  Sn159  1  0.75272511  0.01110043  0.87466230  1
