# generated using pymatgen
data_CsSrF3
_symmetry_space_group_name_H-M   'P 1'
_cell_length_a   13.66085188
_cell_length_b   13.66085188
_cell_length_c   19.31936300
_cell_angle_alpha   90.00000000
_cell_angle_beta   90.00000000
_cell_angle_gamma   90.00000000
_symmetry_Int_Tables_number   1
_chemical_formula_structural   CsSrF3
_chemical_formula_sum   'Cs32 Sr32 F96'
_cell_volume   3605.35777030
_cell_formula_units_Z   32
loop_
 _symmetry_equiv_pos_site_id
 _symmetry_equiv_pos_as_xyz
  1  'x, y, z'
loop_
 _atom_site_type_symbol
 _atom_site_label
 _atom_site_symmetry_multiplicity
 _atom_site_fract_x
 _atom_site_fract_y
 _atom_site_fract_z
 _atom_site_occupancy
  Cs  Cs0  1  0.00204143  0.99426543  -0.00013853  1
  Cs  Cs1  1  0.00174171  -0.00093412  0.24989468  1
  Cs  Cs2  1  0.99951233  0.00573859  0.49994898  1
  Cs  Cs3  1  0.00144896  -0.00068227  0.74979314  1
  Cs  Cs4  1  0.49889291  0.99338972  0.99979232  1
  Cs  Cs5  1  0.49869351  0.00000620  0.24858546  1
  Cs  Cs6  1  0.49854824  0.00896481  0.49982174  1
  Cs  Cs7  1  0.49854489  0.00035279  0.75108418  1
  Cs  Cs8  1  0.25036151  0.24498264  -0.00009786  1
  Cs  Cs9  1  0.24808287  0.25188997  0.24966097  1
  Cs  Cs10  1  0.24763525  0.25698012  0.49988628  1
  Cs  Cs11  1  0.24814094  0.25201993  0.75007549  1
  Cs  Cs12  1  0.99887652  0.49342394  -0.00020404  1
  Cs  Cs13  1  -0.00127346  0.50000466  0.24857797  1
  Cs  Cs14  1  -0.00144000  0.50905561  0.49980706  1
  Cs  Cs15  1  -0.00153969  0.50045609  0.75111143  1
  Cs  Cs16  1  0.74983300  0.24230805  -0.00001300  1
  Cs  Cs17  1  0.75030651  0.25069998  0.25136412  1
  Cs  Cs18  1  0.75024220  0.25795576  0.50003033  1
  Cs  Cs19  1  0.75035657  0.25071186  0.74830449  1
  Cs  Cs20  1  0.50198740  0.49428170  -0.00014140  1
  Cs  Cs21  1  0.50174849  0.49890342  0.24990912  1
  Cs  Cs22  1  0.49940552  0.50565878  0.49995148  1
  Cs  Cs23  1  0.50148205  0.49926843  0.74975501  1
  Cs  Cs24  1  0.24998082  0.74238156  -0.00005854  1
  Cs  Cs25  1  0.25028922  0.75063681  0.25140781  1
  Cs  Cs26  1  0.25024861  0.75793749  0.50004581  1
  Cs  Cs27  1  0.25030308  0.75078130  0.74828730  1
  Cs  Cs28  1  0.75050961  0.74491788  -0.00014126  1
  Cs  Cs29  1  0.74807041  0.75186833  0.24962255  1
  Cs  Cs30  1  0.74759620  0.75699254  0.49989915  1
  Cs  Cs31  1  0.74811400  0.75196204  0.75008880  1
  F  F32  1  0.98165251  0.24418983  -0.00019520  1
  F  F33  1  0.01609872  0.26208161  0.24983285  1
  F  F34  1  0.98415144  0.23789771  0.49979550  1
  F  F35  1  0.01690391  0.26217990  0.74981335  1
  F  F36  1  0.47683657  0.25375701  -0.00010149  1
  F  F37  1  0.52216174  0.25093599  0.24982335  1
  F  F38  1  0.47664106  0.24866796  0.49988097  1
  F  F39  1  0.52232131  0.25092607  0.74983933  1
  F  F40  1  0.27353074  0.50544905  0.99983483  1
  F  F41  1  0.22568579  0.49958959  0.24983840  1
  F  F42  1  0.27342647  0.49718299  0.49984969  1
  F  F43  1  0.22516677  0.49902049  0.74989823  1
  F  F44  1  0.97685169  0.75377594  -0.00018119  1
  F  F45  1  0.02219333  0.75090690  0.24986455  1
  F  F46  1  0.97663518  0.74876593  0.49981761  1
  F  F47  1  0.02238741  0.75084247  0.74990425  1
  F  F48  1  0.76394379  0.51151972  -0.00019917  1
  F  F49  1  0.73501439  0.49128572  0.24989002  1
  F  F50  1  0.76464286  0.50736308  0.49982301  1
  F  F51  1  0.73465273  0.49125299  0.74977284  1
  F  F52  1  0.48164915  0.74392031  -0.00018072  1
  F  F53  1  0.51611265  0.76213808  0.24980063  1
  F  F54  1  0.48416652  0.73782998  0.49983633  1
  F  F55  1  0.51685015  0.76238070  0.74982875  1
  F  F56  1  0.26394974  0.01157410  0.99979463  1
  F  F57  1  0.23503267  0.99121435  0.24987495  1
  F  F58  1  0.26462611  0.00737017  0.49983178  1
  F  F59  1  0.23469606  0.99128618  0.74976687  1
  F  F60  1  0.77353224  0.00535757  -0.00012603  1
  F  F61  1  0.72571247  -0.00036135  0.24984667  1
  F  F62  1  0.77338493  0.99715282  0.49984714  1
  F  F63  1  0.72519349  -0.00096421  0.74989306  1
  F  F64  1  0.11011558  0.11017736  0.12222290  1
  F  F65  1  0.13927161  0.14156266  0.37731191  1
  F  F66  1  0.13817485  0.14074796  0.62201400  1
  F  F67  1  0.11004753  0.11004062  0.87748332  1
  F  F68  1  0.61130608  0.11118374  0.11333526  1
  F  F69  1  0.63814538  0.14041788  0.38652560  1
  F  F70  1  0.63722774  0.13976077  0.61318078  1
  F  F71  1  0.61132121  0.11119651  0.88630043  1
  F  F72  1  0.38719746  0.38720471  0.13571840  1
  F  F73  1  0.36158048  0.36370851  0.36380013  1
  F  F74  1  0.36228585  0.36478354  0.63609263  1
  F  F75  1  0.38723271  0.38725758  0.86390430  1
  F  F76  1  0.11143118  0.61127034  0.11329074  1
  F  F77  1  0.13818590  0.64046619  0.38646343  1
  F  F78  1  0.13718428  0.63976146  0.61316693  1
  F  F79  1  0.11123394  0.61112333  0.88631534  1
  F  F80  1  0.88835955  0.38834332  0.12846055  1
  F  F81  1  0.86042244  0.36258674  0.37223297  1
  F  F82  1  0.86110069  0.36350030  0.62746460  1
  F  F83  1  0.88836202  0.38827377  0.87092659  1
  F  F84  1  0.61019943  0.61014826  0.12225202  1
  F  F85  1  0.63929742  0.64160285  0.37731504  1
  F  F86  1  0.63813593  0.64064771  0.62215214  1
  F  F87  1  0.61008088  0.61000445  0.87746755  1
  F  F88  1  0.38834045  0.88833598  0.12824605  1
  F  F89  1  0.36029969  0.86261055  0.37227116  1
  F  F90  1  0.36112384  0.86356961  0.62742391  1
  F  F91  1  0.38841205  0.88836313  0.87111707  1
  F  F92  1  0.88727362  0.88722160  0.13572509  1
  F  F93  1  0.86152962  0.86371665  0.36376252  1
  F  F94  1  0.86228907  0.86471131  0.63611708  1
  F  F95  1  0.88724260  0.88722943  0.86391552  1
  F  F96  1  0.86115857  0.13791833  0.13679665  1
  F  F97  1  0.88738988  0.11402677  0.36205654  1
  F  F98  1  0.88584487  0.11564178  0.63804466  1
  F  F99  1  0.86144228  0.13769067  0.86265995  1
  F  F100  1  0.36206414  0.13696456  0.13623175  1
  F  F101  1  0.38920216  0.11244433  0.36437107  1
  F  F102  1  0.38808746  0.11361455  0.63565794  1
  F  F103  1  0.36209736  0.13698605  0.86349010  1
  F  F104  1  0.13775589  0.36151606  0.11274061  1
  F  F105  1  0.11118841  0.39041700  0.38719445  1
  F  F106  1  0.11176009  0.38986532  0.61210981  1
  F  F107  1  0.13794802  0.36135207  0.88704777  1
  F  F108  1  0.86209388  0.63696707  0.13618156  1
  F  F109  1  0.88925078  0.61236855  0.36436859  1
  F  F110  1  0.88808486  0.61353961  0.63563945  1
  F  F111  1  0.86207684  0.63695719  0.86349840  1
  F  F112  1  0.63697682  0.36193645  0.11321253  1
  F  F113  1  0.61023074  0.39121056  0.38553079  1
  F  F114  1  0.61078511  0.39064113  0.61399117  1
  F  F115  1  0.63699798  0.36189919  0.88669177  1
  F  F116  1  0.36120432  0.63781949  0.13685640  1
  F  F117  1  0.38738464  0.61404747  0.36202550  1
  F  F118  1  0.38569147  0.61570004  0.63812393  1
  F  F119  1  0.36138312  0.63773416  0.86260637  1
  F  F120  1  0.13699561  0.86194323  0.11313618  1
  F  F121  1  0.11021761  0.89121287  0.38556664  1
  F  F122  1  0.11082013  0.89057763  0.61402402  1
  F  F123  1  0.13708955  0.86182858  0.88667413  1
  F  F124  1  0.63776390  0.86141166  0.11275296  1
  F  F125  1  0.61115018  0.89037290  0.38727860  1
  F  F126  1  0.61177181  0.88975095  0.61206179  1
  F  F127  1  0.63795528  0.86126083  0.88707648  1
  Sr  Sr128  1  0.99943203  0.24933637  0.12489102  1
  Sr  Sr129  1  0.99967282  0.25208691  0.37486603  1
  Sr  Sr130  1  0.99960000  0.25227260  0.62479752  1
  Sr  Sr131  1  0.99949408  0.24933949  0.87471745  1
  Sr  Sr132  1  0.49961012  0.24926943  0.12483379  1
  Sr  Sr133  1  0.49947452  0.25180025  0.37484481  1
  Sr  Sr134  1  0.49935115  0.25202257  0.62490549  1
  Sr  Sr135  1  0.49961249  0.24932455  0.87490669  1
  Sr  Sr136  1  0.24970336  0.49962748  0.12485594  1
  Sr  Sr137  1  0.24949121  0.50200055  0.37486957  1
  Sr  Sr138  1  0.24927696  0.50204765  0.62488139  1
  Sr  Sr139  1  0.24968566  0.49959551  0.87482881  1
  Sr  Sr140  1  -0.00037410  0.74925743  0.12480469  1
  Sr  Sr141  1  0.99948513  0.75187094  0.37482765  1
  Sr  Sr142  1  0.99935584  0.75194701  0.62489660  1
  Sr  Sr143  1  -0.00033766  0.74927774  0.87487788  1
  Sr  Sr144  1  0.74955218  0.49917974  0.12482237  1
  Sr  Sr145  1  0.74976322  0.50215748  0.37480578  1
  Sr  Sr146  1  0.74963491  0.50224645  0.62485525  1
  Sr  Sr147  1  0.74954377  0.49915029  0.87482478  1
  Sr  Sr148  1  0.49940411  0.74925993  0.12488524  1
  Sr  Sr149  1  0.49966085  0.75207614  0.37486159  1
  Sr  Sr150  1  0.49955276  0.75222615  0.62482137  1
  Sr  Sr151  1  0.49949954  0.74930643  0.87474170  1
  Sr  Sr152  1  0.24954168  0.99919688  0.12479082  1
  Sr  Sr153  1  0.24972890  0.00218021  0.37481842  1
  Sr  Sr154  1  0.24965188  0.00231433  0.62486347  1
  Sr  Sr155  1  0.24951946  -0.00079826  0.87482383  1
  Sr  Sr156  1  0.74966744  -0.00041182  0.12487074  1
  Sr  Sr157  1  0.74948381  0.00196948  0.37488205  1
  Sr  Sr158  1  0.74926161  0.00204034  0.62485512  1
  Sr  Sr159  1  0.74972030  0.99954814  0.87485075  1
