# generated using pymatgen
data_CsSrI3
_symmetry_space_group_name_H-M   'P 1'
_cell_length_a   18.31243363
_cell_length_b   18.31243363
_cell_length_c   25.89769200
_cell_angle_alpha   90.00000000
_cell_angle_beta   90.00000000
_cell_angle_gamma   90.00000000
_symmetry_Int_Tables_number   1
_chemical_formula_structural   CsSrI3
_chemical_formula_sum   'Cs32 Sr32 I96'
_cell_volume   8684.66736272
_cell_formula_units_Z   32
loop_
 _symmetry_equiv_pos_site_id
 _symmetry_equiv_pos_as_xyz
  1  'x, y, z'
loop_
 _atom_site_type_symbol
 _atom_site_label
 _atom_site_symmetry_multiplicity
 _atom_site_fract_x
 _atom_site_fract_y
 _atom_site_fract_z
 _atom_site_occupancy
  Cs  Cs0  1  0.01115684  0.01110788  0.99329531  1
  Cs  Cs1  1  0.00141240  0.00237761  0.26445803  1
  Cs  Cs2  1  0.96607372  0.96262372  0.50362690  1
  Cs  Cs3  1  0.99866643  0.00136711  0.73605281  1
  Cs  Cs4  1  0.50339812  0.98682156  0.00053888  1
  Cs  Cs5  1  0.50942715  0.01810922  0.23630735  1
  Cs  Cs6  1  0.49943502  0.99914881  0.47921890  1
  Cs  Cs7  1  0.49342725  0.00106381  0.76637152  1
  Cs  Cs8  1  0.25089134  0.25112066  0.97178772  1
  Cs  Cs9  1  0.24354123  0.24352749  0.25433942  1
  Cs  Cs10  1  0.24480728  0.24522190  0.48636028  1
  Cs  Cs11  1  0.25369346  0.25109079  0.74273868  1
  Cs  Cs12  1  0.98751595  0.50319110  0.00082537  1
  Cs  Cs13  1  0.01785940  0.50863674  0.23629715  1
  Cs  Cs14  1  0.01112218  0.50958212  0.48818542  1
  Cs  Cs15  1  0.00545309  0.49623195  0.76577515  1
  Cs  Cs16  1  0.71652875  0.21635682  0.99837014  1
  Cs  Cs17  1  0.76235761  0.26099967  0.23227887  1
  Cs  Cs18  1  0.73174022  0.27802617  0.50025522  1
  Cs  Cs19  1  0.75394010  0.25100873  0.73027938  1
  Cs  Cs20  1  0.49498623  0.49365409  0.99167448  1
  Cs  Cs21  1  0.50200111  0.50165924  0.26484363  1
  Cs  Cs22  1  0.46511745  0.46832201  0.50500221  1
  Cs  Cs23  1  0.50602930  0.50447746  0.73927000  1
  Cs  Cs24  1  0.21767801  0.71667359  0.99772568  1
  Cs  Cs25  1  0.25901577  0.75914317  0.22851762  1
  Cs  Cs26  1  0.27395581  0.73411282  0.50099762  1
  Cs  Cs27  1  0.25094761  0.75489715  0.72321137  1
  Cs  Cs28  1  0.75279700  0.75221395  0.03011460  1
  Cs  Cs29  1  0.74212032  0.74050088  0.25832417  1
  Cs  Cs30  1  0.74425264  0.73902444  0.50263278  1
  Cs  Cs31  1  0.75010827  0.75097464  0.74576933  1
  I  I32  1  0.03748819  0.25732430  -0.00006621  1
  I  I33  1  0.97786853  0.23285923  0.25059300  1
  I  I34  1  0.03257337  0.27849636  0.50028585  1
  I  I35  1  0.96687518  0.24314635  0.75015006  1
  I  I36  1  0.46664126  0.25556540  0.00026146  1
  I  I37  1  0.54323696  0.25208503  0.25123033  1
  I  I38  1  0.46250228  0.24534912  0.50087627  1
  I  I39  1  0.54131089  0.25715486  0.75023293  1
  I  I40  1  0.25535222  0.46644337  0.00013241  1
  I  I41  1  0.24991784  0.54025883  0.25100478  1
  I  I42  1  0.24405809  0.46340850  0.50102890  1
  I  I43  1  0.25555437  0.54393076  0.75022825  1
  I  I44  1  0.96702571  0.73319667  0.00003093  1
  I  I45  1  0.03902623  0.75537587  0.24971630  1
  I  I46  1  0.96113647  0.73889866  0.50023455  1
  I  I47  1  0.03913027  0.76629140  0.74997345  1
  I  I48  1  0.76842107  0.53772614  0.00006504  1
  I  I49  1  0.72248831  0.47815618  0.25019375  1
  I  I50  1  0.78340633  0.52213341  0.50009432  1
  I  I51  1  0.73264847  0.46643367  0.74995911  1
  I  I52  1  0.53998221  0.76825784  0.00020162  1
  I  I53  1  0.47777240  0.72277892  0.25051908  1
  I  I54  1  0.53188783  0.77789079  0.50037385  1
  I  I55  1  0.46624426  0.73288500  0.74985963  1
  I  I56  1  0.25655241  0.03869311  0.00028020  1
  I  I57  1  0.23195751  0.97439850  0.25076911  1
  I  I58  1  0.27764799  0.03355450  0.50019134  1
  I  I59  1  0.24406149  0.96665037  0.75017401  1
  I  I60  1  0.73339255  0.96711399  0.00005824  1
  I  I61  1  0.75540638  0.03987928  0.25008259  1
  I  I62  1  0.74124283  0.95710659  0.50007096  1
  I  I63  1  0.76674434  0.03869070  0.74973653  1
  I  I64  1  0.09478033  0.09469431  0.13375800  1
  I  I65  1  0.14447306  0.14517528  0.36736635  1
  I  I66  1  0.13963207  0.13907659  0.64089811  1
  I  I67  1  0.10544545  0.10546264  0.86296159  1
  I  I68  1  0.60290950  0.10504770  0.11085251  1
  I  I69  1  0.63878762  0.13897158  0.40182552  1
  I  I70  1  0.64492467  0.14517664  0.60545043  1
  I  I71  1  0.60402095  0.10532105  0.88809212  1
  I  I72  1  0.40561878  0.40546910  0.14390459  1
  I  I73  1  0.35575139  0.35628772  0.35937503  1
  I  I74  1  0.37150192  0.37148366  0.64386189  1
  I  I75  1  0.39541867  0.39513626  0.85629738  1
  I  I76  1  0.10609713  0.60367290  0.11140127  1
  I  I77  1  0.14331518  0.64365226  0.39886849  1
  I  I78  1  0.14025890  0.63942316  0.60387812  1
  I  I79  1  0.10589886  0.60422904  0.88826996  1
  I  I80  1  0.90010553  0.39988681  0.12584450  1
  I  I81  1  0.84425175  0.34447102  0.37852824  1
  I  I82  1  0.85476665  0.35322296  0.61474447  1
  I  I83  1  0.89973110  0.39890885  0.88270116  1
  I  I84  1  0.60017444  0.60008301  0.12461202  1
  I  I85  1  0.64766150  0.64600692  0.37489011  1
  I  I86  1  0.64504444  0.64426213  0.63281259  1
  I  I87  1  0.60553609  0.60492409  0.86413126  1
  I  I88  1  0.39991429  0.89996930  0.12581372  1
  I  I89  1  0.35568838  0.85524152  0.38941343  1
  I  I90  1  0.35850123  0.85848492  0.61117427  1
  I  I91  1  0.39528270  0.89555548  0.88502785  1
  I  I92  1  0.90011939  0.90015432  0.12606646  1
  I  I93  1  0.85569919  0.85542738  0.35916454  1
  I  I94  1  0.86125643  0.86086245  0.63742414  1
  I  I95  1  0.89517294  0.89520381  0.86246938  1
  I  I96  1  0.85159058  0.15050941  0.10584077  1
  I  I97  1  0.90012281  0.09716856  0.39290822  1
  I  I98  1  0.89539934  0.10493923  0.60685726  1
  I  I99  1  0.86176596  0.13733675  0.90296007  1
  I  I100  1  0.35958656  0.14352089  0.14990972  1
  I  I101  1  0.39469856  0.10545665  0.35476762  1
  I  I102  1  0.38958871  0.11346664  0.65388968  1
  I  I103  1  0.35811049  0.14352854  0.85447200  1
  I  I104  1  0.14367869  0.35927284  0.14896935  1
  I  I105  1  0.10000915  0.39959246  0.35868435  1
  I  I106  1  0.11277383  0.38897255  0.65237693  1
  I  I107  1  0.14498777  0.35731795  0.85359376  1
  I  I108  1  0.85622447  0.64490282  0.14851577  1
  I  I109  1  0.89982209  0.60007183  0.35175149  1
  I  I110  1  0.89510614  0.60645931  0.65319531  1
  I  I111  1  0.86649863  0.63462058  0.84419327  1
  I  I112  1  0.65044743  0.35076920  0.10614186  1
  I  I113  1  0.60066068  0.39931472  0.39777183  1
  I  I114  1  0.60926252  0.39407384  0.60531193  1
  I  I115  1  0.63943465  0.36296939  0.90269814  1
  I  I116  1  0.35145514  0.64999795  0.10597160  1
  I  I117  1  0.39531036  0.60462906  0.39589091  1
  I  I118  1  0.38994936  0.61336121  0.60535027  1
  I  I119  1  0.36626951  0.63636105  0.90477960  1
  I  I120  1  0.15030667  0.85162235  0.10500939  1
  I  I121  1  0.09924768  0.89935131  0.39133229  1
  I  I122  1  0.11056511  0.88974081  0.60868830  1
  I  I123  1  0.13578830  0.86269635  0.90429505  1
  I  I124  1  0.64525166  0.85621535  0.14890164  1
  I  I125  1  0.60040299  0.89963009  0.35139067  1
  I  I126  1  0.60882103  0.89465307  0.65556846  1
  I  I127  1  0.63409409  0.86649872  0.84450797  1
  Sr  Sr128  1  0.00262306  0.24888828  0.12462998  1
  Sr  Sr129  1  0.99667299  0.24956804  0.37693529  1
  Sr  Sr130  1  0.00124716  0.25080823  0.62454647  1
  Sr  Sr131  1  0.99833069  0.24920137  0.87519758  1
  Sr  Sr132  1  0.49931275  0.25448530  0.12653994  1
  Sr  Sr133  1  0.50179639  0.24907238  0.37499542  1
  Sr  Sr134  1  0.50166188  0.24830881  0.62656512  1
  Sr  Sr135  1  0.50204704  0.25302168  0.87413955  1
  Sr  Sr136  1  0.25468188  0.49871003  0.12612080  1
  Sr  Sr137  1  0.24786313  0.50151937  0.37480642  1
  Sr  Sr138  1  0.24851114  0.50051993  0.62725985  1
  Sr  Sr139  1  0.25359237  0.50199751  0.87403172  1
  Sr  Sr140  1  0.00148078  0.75220436  0.12501597  1
  Sr  Sr141  1  0.00090645  0.74862975  0.37431417  1
  Sr  Sr142  1  0.00037707  0.74743502  0.62636124  1
  Sr  Sr143  1  0.99910864  0.75102660  0.87396541  1
  Sr  Sr144  1  0.74907874  0.49999275  0.12407025  1
  Sr  Sr145  1  0.75247933  0.49845024  0.37519149  1
  Sr  Sr146  1  0.75468325  0.50084235  0.62606980  1
  Sr  Sr147  1  0.75102700  0.50096420  0.87501909  1
  Sr  Sr148  1  0.50062077  0.74919129  0.12412668  1
  Sr  Sr149  1  0.50078779  0.75147811  0.37567617  1
  Sr  Sr150  1  0.50333455  0.75507801  0.62598747  1
  Sr  Sr151  1  0.50128083  0.74997694  0.87526342  1
  Sr  Sr152  1  0.24894241  0.00257957  0.12492414  1
  Sr  Sr153  1  0.24917894  0.99844792  0.37647994  1
  Sr  Sr154  1  0.25241196  0.00209726  0.62470173  1
  Sr  Sr155  1  0.24862077  0.99781371  0.87564697  1
  Sr  Sr156  1  0.75215093  0.00168226  0.12533879  1
  Sr  Sr157  1  0.74876053  0.00089918  0.37514537  1
  Sr  Sr158  1  0.74806037  0.00116215  0.62526482  1
  Sr  Sr159  1  0.75101662  0.99909510  0.87382135  1
