# generated using pymatgen
data_CsSrBr3
_symmetry_space_group_name_H-M   'P 1'
_cell_length_a   17.06023237
_cell_length_b   17.06023237
_cell_length_c   24.12681200
_cell_angle_alpha   90.00000000
_cell_angle_beta   90.00000000
_cell_angle_gamma   90.00000000
_symmetry_Int_Tables_number   1
_chemical_formula_structural   CsSrBr3
_chemical_formula_sum   'Cs32 Sr32 Br96'
_cell_volume   7022.14551385
_cell_formula_units_Z   32
loop_
 _symmetry_equiv_pos_site_id
 _symmetry_equiv_pos_as_xyz
  1  'x, y, z'
loop_
 _atom_site_type_symbol
 _atom_site_label
 _atom_site_symmetry_multiplicity
 _atom_site_fract_x
 _atom_site_fract_y
 _atom_site_fract_z
 _atom_site_occupancy
  Br  Br0  1  0.99744792  0.29171205  0.00009790  1
  Br  Br1  1  0.00462273  0.21634397  0.25027349  1
  Br  Br2  1  0.99571530  0.28719635  0.50135728  1
  Br  Br3  1  0.00005665  0.20788601  0.75129119  1
  Br  Br4  1  0.46578015  0.25554877  0.99975416  1
  Br  Br5  1  0.53168307  0.24739985  0.24988905  1
  Br  Br6  1  0.46653687  0.25667212  0.50012363  1
  Br  Br7  1  0.53772860  0.24480805  0.75008310  1
  Br  Br8  1  0.25125943  0.46393789  0.00079370  1
  Br  Br9  1  0.26107037  0.53770115  0.25090428  1
  Br  Br10  1  0.24340608  0.46106402  0.49999410  1
  Br  Br11  1  0.24753666  0.53785018  0.75003646  1
  Br  Br12  1  0.96577951  0.75536632  0.99972743  1
  Br  Br13  1  0.03155979  0.74865782  0.24984993  1
  Br  Br14  1  0.96606167  0.75604695  0.49986447  1
  Br  Br15  1  0.03749586  0.74684429  0.74985071  1
  Br  Br16  1  0.79038015  0.49538166  0.99964655  1
  Br  Br17  1  0.72828304  0.51421133  0.24992186  1
  Br  Br18  1  0.77993667  0.48813540  0.50133287  1
  Br  Br19  1  0.70956878  0.50316738  0.75114413  1
  Br  Br20  1  0.49952276  0.79030585  0.99986459  1
  Br  Br21  1  0.50483395  0.71612784  0.25016381  1
  Br  Br22  1  0.49526710  0.78754779  0.50110146  1
  Br  Br23  1  0.50082478  0.70733976  0.75079357  1
  Br  Br24  1  0.29001594  0.99570453  0.99937010  1
  Br  Br25  1  0.22758872  0.01405300  0.24949308  1
  Br  Br26  1  0.28146573  0.98818992  0.50084715  1
  Br  Br27  1  0.20909362  0.00232546  0.75078643  1
  Br  Br28  1  0.75102607  0.96287108  0.00068663  1
  Br  Br29  1  0.76137380  0.03751841  0.25061552  1
  Br  Br30  1  0.74471191  0.96223402  0.49980845  1
  Br  Br31  1  0.74847884  0.03716932  0.74994716  1
  Br  Br32  1  0.15267763  0.15453439  0.11038841  1
  Br  Br33  1  0.14669890  0.14786235  0.39028576  1
  Br  Br34  1  0.13757850  0.13673553  0.60903139  1
  Br  Br35  1  0.11208271  0.11120882  0.90064937  1
  Br  Br36  1  0.64425377  0.14478396  0.10512579  1
  Br  Br37  1  0.64296881  0.14504771  0.39606998  1
  Br  Br38  1  0.63078162  0.13081319  0.59857527  1
  Br  Br39  1  0.60125201  0.10056895  0.88796537  1
  Br  Br40  1  0.36328294  0.36405592  0.14961411  1
  Br  Br41  1  0.35717954  0.35912481  0.35456519  1
  Br  Br42  1  0.35962574  0.35945413  0.64524112  1
  Br  Br43  1  0.39906830  0.39862625  0.86211810  1
  Br  Br44  1  0.14457127  0.64521453  0.10627399  1
  Br  Br45  1  0.14318456  0.64498114  0.39607206  1
  Br  Br46  1  0.13042180  0.63023890  0.59870617  1
  Br  Br47  1  0.10126109  0.60088433  0.88786290  1
  Br  Br48  1  0.85850100  0.35958813  0.14259613  1
  Br  Br49  1  0.85496206  0.35588413  0.35954810  1
  Br  Br50  1  0.85034139  0.34916649  0.64197036  1
  Br  Br51  1  0.88999690  0.38910596  0.85051178  1
  Br  Br52  1  0.65316430  0.65428696  0.11054985  1
  Br  Br53  1  0.64634926  0.64772795  0.39094498  1
  Br  Br54  1  0.63762898  0.63701979  0.60857553  1
  Br  Br55  1  0.61154373  0.61040564  0.90033290  1
  Br  Br56  1  0.35874790  0.85983178  0.14133468  1
  Br  Br57  1  0.35556999  0.85668326  0.35780402  1
  Br  Br58  1  0.34983818  0.84869146  0.64227022  1
  Br  Br59  1  0.39030086  0.88901474  0.85060394  1
  Br  Br60  1  0.86321197  0.86423518  0.14946522  1
  Br  Br61  1  0.85725519  0.85915561  0.35503062  1
  Br  Br62  1  0.85900150  0.85906499  0.64320521  1
  Br  Br63  1  0.89904966  0.89870764  0.86200471  1
  Br  Br64  1  0.89348501  0.11148935  0.10443084  1
  Br  Br65  1  0.89168728  0.10885182  0.39509677  1
  Br  Br66  1  0.88775172  0.10656562  0.60646274  1
  Br  Br67  1  0.85543170  0.14449128  0.89388155  1
  Br  Br68  1  0.39868744  0.10660473  0.13552107  1
  Br  Br69  1  0.39536034  0.10512330  0.36786000  1
  Br  Br70  1  0.38529654  0.10936352  0.64392740  1
  Br  Br71  1  0.35524336  0.14511247  0.85712633  1
  Br  Br72  1  0.10730653  0.39736616  0.14396687  1
  Br  Br73  1  0.10499968  0.39517236  0.35773709  1
  Br  Br74  1  0.11040513  0.38382720  0.64871086  1
  Br  Br75  1  0.14668744  0.35324887  0.85736553  1
  Br  Br76  1  0.89865529  0.60674901  0.13569067  1
  Br  Br77  1  0.89595703  0.60433861  0.36808575  1
  Br  Br78  1  0.88560104  0.60922383  0.64473961  1
  Br  Br79  1  0.85506435  0.64529420  0.85722931  1
  Br  Br80  1  0.60808539  0.39734893  0.11131031  1
  Br  Br81  1  0.60157631  0.39894909  0.38006690  1
  Br  Br82  1  0.60595850  0.38900631  0.61212080  1
  Br  Br83  1  0.64715565  0.35322235  0.89250609  1
  Br  Br84  1  0.39371896  0.61146492  0.10494269  1
  Br  Br85  1  0.39187377  0.60887077  0.39559117  1
  Br  Br86  1  0.38750377  0.60667261  0.60583751  1
  Br  Br87  1  0.35536592  0.64473738  0.89348272  1
  Br  Br88  1  0.10789851  0.89760667  0.11090558  1
  Br  Br89  1  0.10151461  0.89883834  0.38017508  1
  Br  Br90  1  0.10576670  0.88856172  0.61082585  1
  Br  Br91  1  0.14705949  0.85332407  0.89273836  1
  Br  Br92  1  0.60742640  0.89724811  0.14426141  1
  Br  Br93  1  0.60543900  0.89484946  0.35746548  1
  Br  Br94  1  0.60968165  0.88448220  0.64845138  1
  Br  Br95  1  0.64712205  0.85276988  0.85720564  1
  Cs  Cs96  1  0.98611265  0.98646399  0.99309371  1
  Cs  Cs97  1  0.98843686  0.98737618  0.25142665  1
  Cs  Cs98  1  0.99305449  0.98793964  0.50018891  1
  Cs  Cs99  1  0.98941276  0.98890458  0.73484247  1
  Cs  Cs100  1  0.51183774  0.01023861  0.01544692  1
  Cs  Cs101  1  0.47821562  0.98920104  0.25084715  1
  Cs  Cs102  1  0.51148349  0.01192056  0.49110170  1
  Cs  Cs103  1  0.51281686  0.01397257  0.75658354  1
  Cs  Cs104  1  0.24464430  0.24388022  0.98434200  1
  Cs  Cs105  1  0.23175873  0.24687636  0.24960452  1
  Cs  Cs106  1  0.25051017  0.24612438  0.50340259  1
  Cs  Cs107  1  0.23263216  0.23241425  0.74046276  1
  Cs  Cs108  1  0.01195146  0.51117447  0.01521991  1
  Cs  Cs109  1  0.97837444  0.48891248  0.25076316  1
  Cs  Cs110  1  0.01182704  0.51115403  0.49120044  1
  Cs  Cs111  1  0.01353465  0.51376350  0.75650086  1
  Cs  Cs112  1  0.76841797  0.26675654  0.00907026  1
  Cs  Cs113  1  0.74644775  0.25109958  0.25019048  1
  Cs  Cs114  1  0.76796115  0.25486270  0.50401129  1
  Cs  Cs115  1  0.75776369  0.25654812  0.76671379  1
  Cs  Cs116  1  0.48577245  0.48626259  0.99362915  1
  Cs  Cs117  1  0.48838243  0.48742101  0.25141522  1
  Cs  Cs118  1  0.49947990  0.49232161  0.50046940  1
  Cs  Cs119  1  0.49006045  0.48917672  0.73576199  1
  Cs  Cs120  1  0.26859760  0.76683476  0.00915449  1
  Cs  Cs121  1  0.24613522  0.75133159  0.24922990  1
  Cs  Cs122  1  0.26750471  0.75439627  0.50444540  1
  Cs  Cs123  1  0.25760439  0.75671063  0.76703750  1
  Cs  Cs124  1  0.74447508  0.74337279  0.98422833  1
  Cs  Cs125  1  0.73169843  0.74774189  0.24950466  1
  Cs  Cs126  1  0.75024486  0.74769767  0.50317026  1
  Cs  Cs127  1  0.73277283  0.73236091  0.74032968  1
  Sr  Sr128  1  0.00301293  0.25145546  0.12463832  1
  Sr  Sr129  1  0.00001109  0.25015381  0.37624070  1
  Sr  Sr130  1  0.99690188  0.24816106  0.62641429  1
  Sr  Sr131  1  0.00053929  0.24970192  0.87561903  1
  Sr  Sr132  1  0.50089970  0.25302780  0.12493061  1
  Sr  Sr133  1  0.49930298  0.25112761  0.37464243  1
  Sr  Sr134  1  0.49894818  0.24652955  0.62549571  1
  Sr  Sr135  1  0.50084562  0.24973183  0.87486071  1
  Sr  Sr136  1  0.25255761  0.50213560  0.12608074  1
  Sr  Sr137  1  0.24950898  0.50119690  0.37528515  1
  Sr  Sr138  1  0.24596261  0.49777601  0.62515106  1
  Sr  Sr139  1  0.25003788  0.49965040  0.87518155  1
  Sr  Sr140  1  0.00076506  0.75326029  0.12486335  1
  Sr  Sr141  1  0.99954664  0.75068735  0.37444724  1
  Sr  Sr142  1  0.99888954  0.74625582  0.62527028  1
  Sr  Sr143  1  0.00061764  0.74997659  0.87473136  1
  Sr  Sr144  1  0.75107244  0.50514749  0.12381528  1
  Sr  Sr145  1  0.74910310  0.50110816  0.37617093  1
  Sr  Sr146  1  0.74898219  0.49550307  0.62668444  1
  Sr  Sr147  1  0.75069887  0.49967009  0.87525812  1
  Sr  Sr148  1  0.50346447  0.75134774  0.12456154  1
  Sr  Sr149  1  0.49971143  0.75022212  0.37595747  1
  Sr  Sr150  1  0.49654671  0.74828996  0.62615899  1
  Sr  Sr151  1  0.50091146  0.74932702  0.87522015  1
  Sr  Sr152  1  0.25082102  0.00540266  0.12347635  1
  Sr  Sr153  1  0.24891726  0.00105539  0.37587485  1
  Sr  Sr154  1  0.24878340  0.99516137  0.62620238  1
  Sr  Sr155  1  0.25058609  0.99967384  0.87494648  1
  Sr  Sr156  1  0.75253179  0.00215456  0.12570629  1
  Sr  Sr157  1  0.74934665  0.00148505  0.37486196  1
  Sr  Sr158  1  0.74559250  0.99819518  0.62519012  1
  Sr  Sr159  1  0.75005859  0.99944769  0.87522524  1
