# generated using pymatgen
data_CsSrCl3
_symmetry_space_group_name_H-M   'P 1'
_cell_length_a   16.19214708
_cell_length_b   16.19214708
_cell_length_c   22.89915400
_cell_angle_alpha   90.00000000
_cell_angle_beta   90.00000000
_cell_angle_gamma   90.00000000
_symmetry_Int_Tables_number   1
_chemical_formula_structural   CsSrCl3
_chemical_formula_sum   'Cs32 Sr32 Cl96'
_cell_volume   6003.82904829
_cell_formula_units_Z   32
loop_
 _symmetry_equiv_pos_site_id
 _symmetry_equiv_pos_as_xyz
  1  'x, y, z'
loop_
 _atom_site_type_symbol
 _atom_site_label
 _atom_site_symmetry_multiplicity
 _atom_site_fract_x
 _atom_site_fract_y
 _atom_site_fract_z
 _atom_site_occupancy
  Cl  Cl0  1  0.00119270  0.21349000  0.00001550  1
  Cl  Cl1  1  0.99807740  0.28446871  0.25010031  1
  Cl  Cl2  1  0.00109334  0.21319505  0.50006296  1
  Cl  Cl3  1  0.99927867  0.28560527  0.75000551  1
  Cl  Cl4  1  0.53586471  0.24905966  0.00010288  1
  Cl  Cl5  1  0.46486758  0.24986747  0.25002638  1
  Cl  Cl6  1  0.53448721  0.24819015  0.50013167  1
  Cl  Cl7  1  0.46431068  0.25035886  0.75017001  1
  Cl  Cl8  1  0.24909014  0.53491047  0.00011056  1
  Cl  Cl9  1  0.24985357  0.46456065  0.25007835  1
  Cl  Cl10  1  0.25028586  0.53374472  0.50014009  1
  Cl  Cl11  1  0.25029194  0.46379733  0.75025513  1
  Cl  Cl12  1  0.03532547  0.74836481  -0.00007641  1
  Cl  Cl13  1  0.96548415  0.75008662  0.24999113  1
  Cl  Cl14  1  0.03471120  0.74798158  0.50012123  1
  Cl  Cl15  1  0.96413217  0.75036086  0.75007746  1
  Cl  Cl16  1  0.71460801  0.50166183  0.00003937  1
  Cl  Cl17  1  0.78540374  0.49716620  0.25010899  1
  Cl  Cl18  1  0.71383664  0.50181501  0.50003744  1
  Cl  Cl19  1  0.78540833  0.49741735  0.75000861  1
  Cl  Cl20  1  0.50157659  0.71423095  0.00000942  1
  Cl  Cl21  1  0.49805154  0.78444658  0.25012427  1
  Cl  Cl22  1  0.50120572  0.71294414  0.50005275  1
  Cl  Cl23  1  0.49806214  0.78559745  0.74995112  1
  Cl  Cl24  1  0.21468277  0.00137535  0.00007608  1
  Cl  Cl25  1  0.28511815  0.99716993  0.25011881  1
  Cl  Cl26  1  0.21363346  0.00109407  0.50013503  1
  Cl  Cl27  1  0.28540158  0.99787385  0.74997318  1
  Cl  Cl28  1  0.74896309  0.03477628  0.00004132  1
  Cl  Cl29  1  0.75034315  0.96416079  0.25003897  1
  Cl  Cl30  1  0.74891832  0.03393324  0.50004789  1
  Cl  Cl31  1  0.75017572  0.96400036  0.75008666  1
  Cl  Cl32  1  0.11292993  0.11204921  0.14674780  1
  Cl  Cl33  1  0.14597183  0.14520271  0.36177251  1
  Cl  Cl34  1  0.11197845  0.11173303  0.64672585  1
  Cl  Cl35  1  0.14560823  0.14552617  0.86169263  1
  Cl  Cl36  1  0.60341543  0.10263010  0.13764603  1
  Cl  Cl37  1  0.63810115  0.13720480  0.35382237  1
  Cl  Cl38  1  0.60334906  0.10275762  0.63766100  1
  Cl  Cl39  1  0.63737937  0.13716907  0.85376942  1
  Cl  Cl40  1  0.39646619  0.39565361  0.11277571  1
  Cl  Cl41  1  0.36125896  0.36023029  0.39577892  1
  Cl  Cl42  1  0.39669259  0.39575188  0.61291936  1
  Cl  Cl43  1  0.36254805  0.36246146  0.89659508  1
  Cl  Cl44  1  0.10357691  0.60278991  0.13765166  1
  Cl  Cl45  1  0.13838364  0.63748755  0.35428594  1
  Cl  Cl46  1  0.10348687  0.60270788  0.63742261  1
  Cl  Cl47  1  0.13766752  0.63740837  0.85342493  1
  Cl  Cl48  1  0.88816135  0.38710168  0.10322213  1
  Cl  Cl49  1  0.85286481  0.35236285  0.38836307  1
  Cl  Cl50  1  0.88725317  0.38676808  0.60279982  1
  Cl  Cl51  1  0.85430522  0.35433919  0.88827467  1
  Cl  Cl52  1  0.61276402  0.61183504  0.14669098  1
  Cl  Cl53  1  0.64684081  0.64623071  0.36167698  1
  Cl  Cl54  1  0.61201335  0.61164758  0.64697296  1
  Cl  Cl55  1  0.64558177  0.64578810  0.86159071  1
  Cl  Cl56  1  0.38834434  0.88745125  0.10357352  1
  Cl  Cl57  1  0.35288456  0.85187027  0.38828976  1
  Cl  Cl58  1  0.38694969  0.88653268  0.60303914  1
  Cl  Cl59  1  0.35431165  0.85434444  0.88827507  1
  Cl  Cl60  1  0.89616784  0.89552483  0.11236340  1
  Cl  Cl61  1  0.86137018  0.86055983  0.39630270  1
  Cl  Cl62  1  0.89564619  0.89522089  0.61227879  1
  Cl  Cl63  1  0.86275284  0.86243541  0.89656687  1
  Cl  Cl64  1  0.85712563  0.14226402  0.14245692  1
  Cl  Cl65  1  0.89318132  0.10558445  0.35782772  1
  Cl  Cl66  1  0.85659492  0.14227625  0.64259215  1
  Cl  Cl67  1  0.89253889  0.10723526  0.85751684  1
  Cl  Cl68  1  0.35712733  0.14277700  0.10773232  1
  Cl  Cl69  1  0.39344855  0.10511771  0.39218476  1
  Cl  Cl70  1  0.35641256  0.14239925  0.60796502  1
  Cl  Cl71  1  0.39276185  0.10702275  0.89259394  1
  Cl  Cl72  1  0.14382524  0.35575650  0.10769628  1
  Cl  Cl73  1  0.10627338  0.39240358  0.39236533  1
  Cl  Cl74  1  0.14310052  0.35600554  0.60772077  1
  Cl  Cl75  1  0.10678324  0.39279396  0.89275038  1
  Cl  Cl76  1  0.85702622  0.64266683  0.10776605  1
  Cl  Cl77  1  0.89362623  0.60517174  0.39184657  1
  Cl  Cl78  1  0.85651719  0.64231890  0.60800593  1
  Cl  Cl79  1  0.89255299  0.60719282  0.89206060  1
  Cl  Cl80  1  0.64374348  0.35604817  0.14239376  1
  Cl  Cl81  1  0.60622551  0.39239907  0.35807089  1
  Cl  Cl82  1  0.64324229  0.35567764  0.64216103  1
  Cl  Cl83  1  0.60702472  0.39262048  0.85778916  1
  Cl  Cl84  1  0.35701515  0.64261674  0.14204394  1
  Cl  Cl85  1  0.39400600  0.60474906  0.35778326  1
  Cl  Cl86  1  0.35666841  0.64213260  0.64261555  1
  Cl  Cl87  1  0.39221956  0.60729556  0.85764975  1
  Cl  Cl88  1  0.14365758  0.85605407  0.14136789  1
  Cl  Cl89  1  0.10594320  0.89268926  0.35787952  1
  Cl  Cl90  1  0.14280731  0.85604349  0.64230142  1
  Cl  Cl91  1  0.10698294  0.89277901  0.85774784  1
  Cl  Cl92  1  0.64365347  0.85592048  0.10782903  1
  Cl  Cl93  1  0.60597349  0.89269983  0.39210823  1
  Cl  Cl94  1  0.64233602  0.85618920  0.60766339  1
  Cl  Cl95  1  0.60720951  0.89239457  0.89267470  1
  Cs  Cs96  1  0.99256208  -0.00765221  0.98819788  1
  Cs  Cs97  1  0.98828300  0.98821945  0.24266516  1
  Cs  Cs98  1  0.99204730  0.99158272  0.48791397  1
  Cs  Cs99  1  0.98803006  0.98795026  0.74287660  1
  Cs  Cs100  1  0.51182230  0.01161576  0.00709244  1
  Cs  Cs101  1  0.50719031  0.00632664  0.26213435  1
  Cs  Cs102  1  0.51190497  0.01062264  0.50756782  1
  Cs  Cs103  1  0.50731373  0.00700985  0.76220902  1
  Cs  Cs104  1  0.23807438  0.23743579  0.99266617  1
  Cs  Cs105  1  0.24311142  0.24264243  0.23802133  1
  Cs  Cs106  1  0.23762702  0.23720524  0.49266776  1
  Cs  Cs107  1  0.24254586  0.24241524  0.73765429  1
  Cs  Cs108  1  0.01163632  0.51213566  0.00726907  1
  Cs  Cs109  1  0.00771332  0.50686580  0.26225073  1
  Cs  Cs110  1  0.01178023  0.51125520  0.50722488  1
  Cs  Cs111  1  0.00729031  0.50704188  0.76216911  1
  Cs  Cs112  1  0.75747514  0.25663385  0.01177477  1
  Cs  Cs113  1  0.76215109  0.26124859  0.25753598  1
  Cs  Cs114  1  0.75664899  0.25614051  0.51234533  1
  Cs  Cs115  1  0.76211498  0.26173284  0.75772156  1
  Cs  Cs116  1  0.49260138  0.49238142  0.98888112  1
  Cs  Cs117  1  0.48847808  0.48756357  0.24266113  1
  Cs  Cs118  1  0.49194169  0.49092993  0.48793133  1
  Cs  Cs119  1  0.48772422  0.48783974  0.74308573  1
  Cs  Cs120  1  0.25756250  0.75690035  0.01211229  1
  Cs  Cs121  1  0.26215827  0.76158783  0.25700404  1
  Cs  Cs122  1  0.25634986  0.75593101  0.51236657  1
  Cs  Cs123  1  0.26223045  0.76185942  0.75762615  1
  Cs  Cs124  1  0.73798898  0.73804749  0.99233870  1
  Cs  Cs125  1  0.74368454  0.74272960  0.23799550  1
  Cs  Cs126  1  0.73728611  0.73666721  0.49291304  1
  Cs  Cs127  1  0.74246385  0.74225686  0.73793486  1
  Sr  Sr128  1  0.00025020  0.24937037  0.12504267  1
  Sr  Sr129  1  0.99964493  0.24898042  0.37509640  1
  Sr  Sr130  1  -0.00035196  0.24936867  0.62500272  1
  Sr  Sr131  1  -0.00004886  0.24986615  0.87506990  1
  Sr  Sr132  1  0.50042979  0.24933567  0.12509861  1
  Sr  Sr133  1  0.49985286  0.24867353  0.37503723  1
  Sr  Sr134  1  0.49976970  0.24910208  0.62522993  1
  Sr  Sr135  1  0.49990560  0.24980472  0.87513647  1
  Sr  Sr136  1  0.25001851  0.49940439  0.12501954  1
  Sr  Sr137  1  0.24994647  0.49891680  0.37509709  1
  Sr  Sr138  1  0.24994763  0.49900141  0.62521718  1
  Sr  Sr139  1  0.24977751  0.49970773  0.87513384  1
  Sr  Sr140  1  0.00018231  0.74938010  0.12491918  1
  Sr  Sr141  1  -0.00018028  0.74900934  0.37509764  1
  Sr  Sr142  1  -0.00038598  0.74912208  0.62511783  1
  Sr  Sr143  1  0.00007131  0.74980293  0.87495537  1
  Sr  Sr144  1  0.75046137  0.49935290  0.12503388  1
  Sr  Sr145  1  0.74956943  0.49914877  0.37501975  1
  Sr  Sr146  1  0.74969228  0.49913887  0.62503390  1
  Sr  Sr147  1  0.74968964  0.49998605  0.87498172  1
  Sr  Sr148  1  0.50040187  0.74943232  0.12507546  1
  Sr  Sr149  1  0.49975583  0.74879757  0.37509369  1
  Sr  Sr150  1  0.49947473  0.74905022  0.62501938  1
  Sr  Sr151  1  0.49977929  0.74983934  0.87500588  1
  Sr  Sr152  1  0.25041188  0.99957714  0.12501071  1
  Sr  Sr153  1  0.24976468  0.99878048  0.37519247  1
  Sr  Sr154  1  0.24954601  0.99924716  0.62503534  1
  Sr  Sr155  1  0.24987522  -0.00009352  0.87504486  1
  Sr  Sr156  1  0.75000256  -0.00061580  0.12502326  1
  Sr  Sr157  1  0.74973491  0.99892620  0.37506437  1
  Sr  Sr158  1  0.74966870  0.99907212  0.62510749  1
  Sr  Sr159  1  0.74994576  -0.00033063  0.87503053  1
