# generated using pymatgen
data_CsTlF3
_symmetry_space_group_name_H-M   'P 1'
_cell_length_a   13.55218937
_cell_length_b   13.55218937
_cell_length_c   19.16568900
_cell_angle_alpha   90.00000000
_cell_angle_beta   90.00000000
_cell_angle_gamma   90.00000000
_symmetry_Int_Tables_number   1
_chemical_formula_structural   CsTlF3
_chemical_formula_sum   'Cs32 Tl32 F96'
_cell_volume   3520.00564122
_cell_formula_units_Z   32
loop_
 _symmetry_equiv_pos_site_id
 _symmetry_equiv_pos_as_xyz
  1  'x, y, z'
loop_
 _atom_site_type_symbol
 _atom_site_label
 _atom_site_symmetry_multiplicity
 _atom_site_fract_x
 _atom_site_fract_y
 _atom_site_fract_z
 _atom_site_occupancy
  Cs  Cs0  1  0.99932064  0.00189775  0.00206380  1
  Cs  Cs1  1  0.99731498  0.01865870  0.25220288  1
  Cs  Cs2  1  0.00512690  0.99464654  0.50091548  1
  Cs  Cs3  1  0.98739393  0.00150291  0.74747946  1
  Cs  Cs4  1  0.51279596  0.00023467  0.00272209  1
  Cs  Cs5  1  0.49577512  0.00753347  0.24973125  1
  Cs  Cs6  1  0.50270500  0.98379698  0.49855185  1
  Cs  Cs7  1  0.50131994  0.99983346  0.74926871  1
  Cs  Cs8  1  0.25090942  0.24335973  0.00945495  1
  Cs  Cs9  1  0.24282776  0.25673946  0.24798914  1
  Cs  Cs10  1  0.25772119  0.24829594  0.48968923  1
  Cs  Cs11  1  0.25073107  0.25550621  0.75019307  1
  Cs  Cs12  1  0.99870660  0.48885418  0.99655883  1
  Cs  Cs13  1  0.00528608  0.50065910  0.24958050  1
  Cs  Cs14  1  0.01536413  0.50519141  0.50263365  1
  Cs  Cs15  1  0.99263843  0.50767023  0.75016315  1
  Cs  Cs16  1  0.75583916  0.25010778  0.99913162  1
  Cs  Cs17  1  0.74676401  0.25471364  0.24162767  1
  Cs  Cs18  1  0.74985978  0.24952121  0.49673225  1
  Cs  Cs19  1  0.74127155  0.25717619  0.75865893  1
  Cs  Cs20  1  0.50802323  0.49439599  0.00013933  1
  Cs  Cs21  1  0.48614420  0.49830990  0.24811511  1
  Cs  Cs22  1  0.49559876  0.50167044  0.49953176  1
  Cs  Cs23  1  0.50325208  0.51393623  0.75348348  1
  Cs  Cs24  1  0.24930563  0.74585287  0.00081288  1
  Cs  Cs25  1  0.24281246  0.75426229  0.26032512  1
  Cs  Cs26  1  0.25745917  0.74692926  0.50344766  1
  Cs  Cs27  1  0.24924538  0.75889215  0.74112041  1
  Cs  Cs28  1  0.75964794  0.74403705  0.99249119  1
  Cs  Cs29  1  0.75203461  0.75431304  0.25404825  1
  Cs  Cs30  1  0.75536779  0.74785357  0.50948463  1
  Cs  Cs31  1  0.74587114  0.75152303  0.75136255  1
  Tl  Tl32  1  0.99914318  0.25193777  0.12401518  1
  Tl  Tl33  1  0.99312110  0.25361615  0.37874338  1
  Tl  Tl34  1  0.00057641  0.25192397  0.62417790  1
  Tl  Tl35  1  0.00743142  0.24768430  0.87138025  1
  Tl  Tl36  1  0.49996131  0.25020346  0.12512829  1
  Tl  Tl37  1  0.50274214  0.24840661  0.37423784  1
  Tl  Tl38  1  0.50012811  0.25183267  0.62463789  1
  Tl  Tl39  1  0.49334489  0.24885551  0.87550659  1
  Tl  Tl40  1  0.25014806  0.50836838  0.12216361  1
  Tl  Tl41  1  0.25049085  0.50169056  0.37503467  1
  Tl  Tl42  1  0.25183854  0.49374829  0.62791854  1
  Tl  Tl43  1  0.25063850  0.50078485  0.87462954  1
  Tl  Tl44  1  0.00058157  0.75053100  0.12608386  1
  Tl  Tl45  1  0.99832459  0.75420584  0.37620612  1
  Tl  Tl46  1  0.00093659  0.75234159  0.62568784  1
  Tl  Tl47  1  0.00742550  0.75306010  0.87532107  1
  Tl  Tl48  1  0.74988643  0.50558197  0.12831169  1
  Tl  Tl49  1  0.75058816  0.50143146  0.37547041  1
  Tl  Tl50  1  0.75046610  0.49599191  0.62251412  1
  Tl  Tl51  1  0.75059642  0.50078527  0.87553163  1
  Tl  Tl52  1  0.50031839  0.75067965  0.12611133  1
  Tl  Tl53  1  0.50795775  0.74938104  0.37192562  1
  Tl  Tl54  1  0.50181702  0.75068022  0.62640117  1
  Tl  Tl55  1  0.49343997  0.75379406  0.87895473  1
  Tl  Tl56  1  0.25002546  0.99490051  0.12688869  1
  Tl  Tl57  1  0.25023808  0.00119441  0.37520746  1
  Tl  Tl58  1  0.25119504  0.00858781  0.62398341  1
  Tl  Tl59  1  0.25034205  0.00079299  0.87544194  1
  Tl  Tl60  1  0.75130823  0.99304201  0.12595582  1
  Tl  Tl61  1  0.75031971  0.00156464  0.37568490  1
  Tl  Tl62  1  0.74862054  0.00986010  0.62479571  1
  Tl  Tl63  1  0.75038155  0.00060043  0.87544936  1
  F  F64  1  0.99212682  0.23732781  0.00722124  1
  F  F65  1  0.00580391  0.26405355  0.24098574  1
  F  F66  1  0.97387413  0.21871009  0.51097419  1
  F  F67  1  0.02762738  0.28170813  0.73784417  1
  F  F68  1  0.48073234  0.23286158  0.00971716  1
  F  F69  1  0.51932280  0.26829887  0.24053308  1
  F  F70  1  0.49138519  0.26715887  0.50837847  1
  F  F71  1  0.50833616  0.23635302  0.74102014  1
  F  F72  1  0.28506156  0.52097433  0.98833148  1
  F  F73  1  0.23927515  0.48789178  0.25823505  1
  F  F74  1  0.26140299  0.51635060  0.49179333  1
  F  F75  1  0.21557108  0.47999189  0.76108659  1
  F  F76  1  0.99062940  0.76570659  0.00979866  1
  F  F77  1  0.01106025  0.73437948  0.24217623  1
  F  F78  1  0.98490567  0.73437398  0.51000059  1
  F  F79  1  0.01673736  0.77021300  0.74134704  1
  F  F80  1  0.76559500  0.51006719  0.99216520  1
  F  F81  1  0.78420696  0.47559004  0.26215993  1
  F  F82  1  0.71691225  0.52662238  0.48887600  1
  F  F83  1  0.73597616  0.49158475  0.75887353  1
  F  F84  1  0.47187890  0.72122548  0.01255967  1
  F  F85  1  0.52858148  0.78308601  0.23927160  1
  F  F86  1  0.49356019  0.73633482  0.50956573  1
  F  F87  1  0.51038135  0.76592891  0.74315107  1
  F  F88  1  0.23858147  0.00748670  0.99209075  1
  F  F89  1  0.22123078  0.98119819  0.26089707  1
  F  F90  1  0.27852794  0.02088096  0.48965990  1
  F  F91  1  0.26244197  0.99437305  0.75877806  1
  F  F92  1  0.76361917  0.02014314  0.99158853  1
  F  F93  1  0.72488863  0.98623230  0.26054289  1
  F  F94  1  0.77617274  0.01838852  0.49065524  1
  F  F95  1  0.73718214  0.98114980  0.75929576  1
  F  F96  1  0.10901774  0.12816254  0.12837572  1
  F  F97  1  0.12292787  0.10741461  0.38159336  1
  F  F98  1  0.09225309  0.11416252  0.63055375  1
  F  F99  1  0.10440243  0.07915660  0.86838975  1
  F  F100  1  0.60876025  0.12481363  0.12580897  1
  F  F101  1  0.61170223  0.09122645  0.38428452  1
  F  F102  1  0.58072509  0.10749359  0.61502282  1
  F  F103  1  0.62237386  0.10540978  0.87476273  1
  F  F104  1  0.39033029  0.37488912  0.12446866  1
  F  F105  1  0.37248609  0.38990695  0.37492209  1
  F  F106  1  0.41961329  0.39624965  0.63499935  1
  F  F107  1  0.38360463  0.40387425  0.86224447  1
  F  F108  1  0.08407801  0.60805319  0.11425687  1
  F  F109  1  0.12853725  0.61334502  0.37521460  1
  F  F110  1  0.11209221  0.62893897  0.62756592  1
  F  F111  1  0.11780720  0.59802270  0.88636777  1
  F  F112  1  0.89044408  0.37602882  0.11744547  1
  F  F113  1  0.87738795  0.40351528  0.40592783  1
  F  F114  1  0.91016806  0.39029146  0.61787883  1
  F  F115  1  0.87220753  0.38782509  0.87184300  1
  F  F116  1  0.59038432  0.61206156  0.13114564  1
  F  F117  1  0.62390054  0.59959054  0.34516048  1
  F  F118  1  0.61380246  0.62959101  0.63361735  1
  F  F119  1  0.62897041  0.61367768  0.87968387  1
  F  F120  1  0.40847531  0.88838127  0.12075758  1
  F  F121  1  0.37737517  0.89480167  0.36864232  1
  F  F122  1  0.38993776  0.87273304  0.62224797  1
  F  F123  1  0.39600776  0.92185720  0.88221214  1
  F  F124  1  0.91735603  0.89313401  0.13720071  1
  F  F125  1  0.88841080  0.91106562  0.36701245  1
  F  F126  1  0.89039594  0.87631447  0.62350367  1
  F  F127  1  0.87836562  0.89585534  0.87597301  1
  F  F128  1  0.87366011  0.14393783  0.13310530  1
  F  F129  1  0.83987248  0.13857155  0.35611799  1
  F  F130  1  0.86823935  0.16005785  0.65246502  1
  F  F131  1  0.85413341  0.12865327  0.86086759  1
  F  F132  1  0.37427509  0.14490241  0.14392804  1
  F  F133  1  0.35136470  0.12857376  0.35207607  1
  F  F134  1  0.35452696  0.17240987  0.62534399  1
  F  F135  1  0.32846346  0.14717681  0.87502257  1
  F  F136  1  0.12458827  0.36016842  0.11628867  1
  F  F137  1  0.13872662  0.38027793  0.38583701  1
  F  F138  1  0.13253816  0.34460615  0.59621628  1
  F  F139  1  0.15410950  0.37118342  0.90168964  1
  F  F140  1  0.85778847  0.66606667  0.12813961  1
  F  F141  1  0.84884790  0.63461893  0.37509869  1
  F  F142  1  0.87630350  0.64466868  0.64142880  1
  F  F143  1  0.86134701  0.62320800  0.86319548  1
  F  F144  1  0.62541412  0.35630991  0.10783741  1
  F  F145  1  0.65211174  0.36831052  0.37595515  1
  F  F146  1  0.64451985  0.33365246  0.62363242  1
  F  F147  1  0.63985811  0.37826953  0.88755849  1
  F  F148  1  0.36819138  0.65818261  0.15410791  1
  F  F149  1  0.36295743  0.62231983  0.36395268  1
  F  F150  1  0.37749180  0.64139765  0.63571702  1
  F  F151  1  0.34719806  0.63034481  0.84770804  1
  F  F152  1  0.14411340  0.83350231  0.12435855  1
  F  F153  1  0.14923113  0.87384580  0.39862996  1
  F  F154  1  0.12566626  0.85944727  0.60862442  1
  F  F155  1  0.17238702  0.85433922  0.87614898  1
  F  F156  1  0.63248355  0.84272571  0.09767297  1
  F  F157  1  0.66139323  0.86414078  0.39521646  1
  F  F158  1  0.62495787  0.86091169  0.61500041  1
  F  F159  1  0.64674481  0.87249997  0.89016211  1
