# generated using pymatgen
data_CsTlBr3
_symmetry_space_group_name_H-M   'P 1'
_cell_length_a   16.65075956
_cell_length_b   16.65075956
_cell_length_c   23.54772900
_cell_angle_alpha   90.00000000
_cell_angle_beta   90.00000000
_cell_angle_gamma   90.00000000
_symmetry_Int_Tables_number   1
_chemical_formula_structural   CsTlBr3
_chemical_formula_sum   'Cs32 Tl32 Br96'
_cell_volume   6528.55592076
_cell_formula_units_Z   32
loop_
 _symmetry_equiv_pos_site_id
 _symmetry_equiv_pos_as_xyz
  1  'x, y, z'
loop_
 _atom_site_type_symbol
 _atom_site_label
 _atom_site_symmetry_multiplicity
 _atom_site_fract_x
 _atom_site_fract_y
 _atom_site_fract_z
 _atom_site_occupancy
  Br  Br0  1  0.00285425  0.25099548  0.00174463  1
  Br  Br1  1  0.00053192  0.24633103  0.24831439  1
  Br  Br2  1  0.00118042  0.25309023  0.50150524  1
  Br  Br3  1  -0.00044714  0.24688231  0.74833257  1
  Br  Br4  1  0.50477695  0.24835751  0.99843832  1
  Br  Br5  1  0.49592196  0.25009402  0.25210954  1
  Br  Br6  1  0.50465387  0.24863670  0.49862128  1
  Br  Br7  1  0.49624839  0.24999874  0.75207438  1
  Br  Br8  1  0.24511246  0.49901041  -0.00002259  1
  Br  Br9  1  0.25519341  0.49884680  0.25019036  1
  Br  Br10  1  0.24532236  0.50110383  0.50021344  1
  Br  Br11  1  0.25562186  0.50022668  0.75003564  1
  Br  Br12  1  0.00471039  0.74869565  0.99860354  1
  Br  Br13  1  -0.00383572  0.74943200  0.25187706  1
  Br  Br14  1  0.00460807  0.74883953  0.49862986  1
  Br  Br15  1  -0.00424627  0.75016045  0.75178047  1
  Br  Br16  1  0.75072236  0.49504944  0.00006438  1
  Br  Br17  1  0.75085206  0.50231233  0.25001509  1
  Br  Br18  1  0.74829495  0.49675881  0.50005415  1
  Br  Br19  1  0.75072613  0.50217347  0.75005818  1
  Br  Br20  1  0.50053454  0.75311028  0.00181376  1
  Br  Br21  1  0.50116627  0.74540520  0.24868775  1
  Br  Br22  1  0.50144513  0.75172860  0.50229200  1
  Br  Br23  1  0.49992327  0.74647270  0.74812830  1
  Br  Br24  1  0.24997181  0.99531033  0.00013269  1
  Br  Br25  1  0.25106442  0.00372145  0.25007452  1
  Br  Br26  1  0.24977811  0.99512088  0.50003266  1
  Br  Br27  1  0.25329036  0.00209200  0.75003971  1
  Br  Br28  1  0.74561637  0.00018013  0.00001984  1
  Br  Br29  1  0.75561033  -0.00093827  0.25014043  1
  Br  Br30  1  0.74501610  0.00072095  0.50008059  1
  Br  Br31  1  0.75497986  -0.00081550  0.75004201  1
  Br  Br32  1  0.12432616  0.12253915  0.12384618  1
  Br  Br33  1  0.12384577  0.12067631  0.37625753  1
  Br  Br34  1  0.12277443  0.12241925  0.62395140  1
  Br  Br35  1  0.12451869  0.12036262  0.87584225  1
  Br  Br36  1  0.62613301  0.12163173  0.12717473  1
  Br  Br37  1  0.62124300  0.12199381  0.37246047  1
  Br  Br38  1  0.62391701  0.12107916  0.62730520  1
  Br  Br39  1  0.62177481  0.12200821  0.87259628  1
  Br  Br40  1  0.37491065  0.37515306  0.12295939  1
  Br  Br41  1  0.37939373  0.37826059  0.37862131  1
  Br  Br42  1  0.37662588  0.37887475  0.62311981  1
  Br  Br43  1  0.37948276  0.37753283  0.87774172  1
  Br  Br44  1  0.12683811  0.62209865  0.12710617  1
  Br  Br45  1  0.12191735  0.62213600  0.37264949  1
  Br  Br46  1  0.12413341  0.62140237  0.62738720  1
  Br  Br47  1  0.12231910  0.62211254  0.87271504  1
  Br  Br48  1  0.87725277  0.37369383  0.12636484  1
  Br  Br49  1  0.87662078  0.37880314  0.37407383  1
  Br  Br50  1  0.87809219  0.37728825  0.62553653  1
  Br  Br51  1  0.87688633  0.37807022  0.87445668  1
  Br  Br52  1  0.62510255  0.62358490  0.12313161  1
  Br  Br53  1  0.62404823  0.62060419  0.37602313  1
  Br  Br54  1  0.62187488  0.62265783  0.62438039  1
  Br  Br55  1  0.62417192  0.62043270  0.87600291  1
  Br  Br56  1  0.37627731  0.87352998  0.12732303  1
  Br  Br57  1  0.37694823  0.87860598  0.37406833  1
  Br  Br58  1  0.37941993  0.87690248  0.62621045  1
  Br  Br59  1  0.37690787  0.87826877  0.87411541  1
  Br  Br60  1  0.87502222  0.87517722  0.12298049  1
  Br  Br61  1  0.87919197  0.87821548  0.37852017  1
  Br  Br62  1  0.87600905  0.87853782  0.62311173  1
  Br  Br63  1  0.87885491  0.87760221  0.87778459  1
  Br  Br64  1  0.87601570  0.12455480  0.12305698  1
  Br  Br65  1  0.87088262  0.12669486  0.37661716  1
  Br  Br66  1  0.87263438  0.12815590  0.62295892  1
  Br  Br67  1  0.87120091  0.12625968  0.87662053  1
  Br  Br68  1  0.37465002  0.12205287  0.12345385  1
  Br  Br69  1  0.37234961  0.12851549  0.37730822  1
  Br  Br70  1  0.37161523  0.12590327  0.62326409  1
  Br  Br71  1  0.37275989  0.12816126  0.87721985  1
  Br  Br72  1  0.12665602  0.37193963  0.12699537  1
  Br  Br73  1  0.12942126  0.37326694  0.37352992  1
  Br  Br74  1  0.12800230  0.37221051  0.62720239  1
  Br  Br75  1  0.12950582  0.37320172  0.87305959  1
  Br  Br76  1  0.87506155  0.62201625  0.12346776  1
  Br  Br77  1  0.87241930  0.62797522  0.37714431  1
  Br  Br78  1  0.87108780  0.62611866  0.62336224  1
  Br  Br79  1  0.87259343  0.62794987  0.87715398  1
  Br  Br80  1  0.62785186  0.37402971  0.12644136  1
  Br  Br81  1  0.62747709  0.37134325  0.37298171  1
  Br  Br82  1  0.62872093  0.37379463  0.62677208  1
  Br  Br83  1  0.62749891  0.37101111  0.87338501  1
  Br  Br84  1  0.37579163  0.62445147  0.12317646  1
  Br  Br85  1  0.37119945  0.62621648  0.37679515  1
  Br  Br86  1  0.37312878  0.62859174  0.62313566  1
  Br  Br87  1  0.37142741  0.62606419  0.87675024  1
  Br  Br88  1  0.12808288  0.87404511  0.12677285  1
  Br  Br89  1  0.12800492  0.87107957  0.37237127  1
  Br  Br90  1  0.12884568  0.87384998  0.62679339  1
  Br  Br91  1  0.12799849  0.87131956  0.87258070  1
  Br  Br92  1  0.62646218  0.87249789  0.12692715  1
  Br  Br93  1  0.62917316  0.87347812  0.37342083  1
  Br  Br94  1  0.62745961  0.87149562  0.62705567  1
  Br  Br95  1  0.62931841  0.87346152  0.87338540  1
  Cs  Cs96  1  0.00036273  -0.00003274  0.00039784  1
  Cs  Cs97  1  0.00053697  -0.00038738  0.25033666  1
  Cs  Cs98  1  0.00018497  0.00010564  0.50034366  1
  Cs  Cs99  1  0.00027507  -0.00045244  0.75025283  1
  Cs  Cs100  1  0.50031228  -0.00010794  0.00030334  1
  Cs  Cs101  1  0.50010729  -0.00040443  0.25018046  1
  Cs  Cs102  1  0.50009076  0.00028909  0.50021058  1
  Cs  Cs103  1  0.50012615  -0.00020716  0.75023446  1
  Cs  Cs104  1  0.25012927  0.24994041  0.00013909  1
  Cs  Cs105  1  0.25010422  0.24961878  0.24973381  1
  Cs  Cs106  1  0.24995604  0.25006179  0.50033735  1
  Cs  Cs107  1  0.25010050  0.24972463  0.75008566  1
  Cs  Cs108  1  -0.00010867  0.49970980  0.00000742  1
  Cs  Cs109  1  0.00015763  0.49964936  0.24961944  1
  Cs  Cs110  1  0.00008281  0.50024300  0.49982957  1
  Cs  Cs111  1  0.00012544  0.49979389  0.74996362  1
  Cs  Cs112  1  0.75030310  0.24963744  0.00017274  1
  Cs  Cs113  1  0.75032502  0.24961668  0.25029540  1
  Cs  Cs114  1  0.74990434  0.25000372  0.50042990  1
  Cs  Cs115  1  0.75025053  0.24971750  0.75021226  1
  Cs  Cs116  1  0.50016636  0.49975530  0.00030340  1
  Cs  Cs117  1  0.50040760  0.49969527  0.25063132  1
  Cs  Cs118  1  0.50016220  0.50034093  0.50032350  1
  Cs  Cs119  1  0.50039876  0.49961261  0.75027631  1
  Cs  Cs120  1  0.25005602  0.75002973  0.00005323  1
  Cs  Cs121  1  0.25015288  0.74977488  0.25029115  1
  Cs  Cs122  1  0.25006696  0.74977863  0.50021286  1
  Cs  Cs123  1  0.25027311  0.74959935  0.75019988  1
  Cs  Cs124  1  0.74998689  0.74993462  0.00018102  1
  Cs  Cs125  1  0.75005684  0.74968782  0.24966944  1
  Cs  Cs126  1  0.74993830  0.74984077  0.50018102  1
  Cs  Cs127  1  0.75020417  0.74975546  0.75026530  1
  Tl  Tl128  1  0.00100101  0.24858451  0.12505254  1
  Tl  Tl129  1  0.00029066  0.24973163  0.37507752  1
  Tl  Tl130  1  0.00052297  0.24997901  0.62491856  1
  Tl  Tl131  1  0.00073550  0.24936897  0.87487535  1
  Tl  Tl132  1  0.50078431  0.24868175  0.12527781  1
  Tl  Tl133  1  0.49998009  0.24979116  0.37537681  1
  Tl  Tl134  1  0.50013161  0.24983565  0.62524629  1
  Tl  Tl135  1  0.50034967  0.24946269  0.87523233  1
  Tl  Tl136  1  0.25091379  0.49873064  0.12503639  1
  Tl  Tl137  1  0.25017788  0.49981439  0.37514746  1
  Tl  Tl138  1  0.25029154  0.50009638  0.62510253  1
  Tl  Tl139  1  0.25049800  0.49965593  0.87501795  1
  Tl  Tl140  1  0.00092835  0.74866553  0.12520626  1
  Tl  Tl141  1  0.00005960  0.74975493  0.37525286  1
  Tl  Tl142  1  0.00008448  0.74993632  0.62519788  1
  Tl  Tl143  1  0.00033034  0.74958122  0.87517958  1
  Tl  Tl144  1  0.75085896  0.49861429  0.12500239  1
  Tl  Tl145  1  0.75014510  0.49955546  0.37502149  1
  Tl  Tl146  1  0.75021597  0.49967736  0.62505378  1
  Tl  Tl147  1  0.75053585  0.49926649  0.87512551  1
  Tl  Tl148  1  0.50085257  0.74869054  0.12522542  1
  Tl  Tl149  1  0.50044532  0.74961042  0.37521452  1
  Tl  Tl150  1  0.50054190  0.74981875  0.62524308  1
  Tl  Tl151  1  0.50066040  0.74947783  0.87523706  1
  Tl  Tl152  1  0.25093975  0.99854507  0.12519474  1
  Tl  Tl153  1  0.25028287  -0.00043399  0.37511167  1
  Tl  Tl154  1  0.25048011  0.99964262  0.62503595  1
  Tl  Tl155  1  0.25066501  -0.00074650  0.87506285  1
  Tl  Tl156  1  0.75082994  -0.00122105  0.12508514  1
  Tl  Tl157  1  0.75011078  -0.00005192  0.37509626  1
  Tl  Tl158  1  0.75028842  0.00015156  0.62503138  1
  Tl  Tl159  1  0.75046021  -0.00028074  0.87505649  1
