# generated using pymatgen
data_CsZnF3
_symmetry_space_group_name_H-M   'P 1'
_cell_length_a   12.13825582
_cell_length_b   12.13825582
_cell_length_c   17.16608600
_cell_angle_alpha   90.00000000
_cell_angle_beta   90.00000000
_cell_angle_gamma   90.00000000
_symmetry_Int_Tables_number   1
_chemical_formula_structural   CsZnF3
_chemical_formula_sum   'Cs32 Zn32 F96'
_cell_volume   2529.20397797
_cell_formula_units_Z   32
loop_
 _symmetry_equiv_pos_site_id
 _symmetry_equiv_pos_as_xyz
  1  'x, y, z'
loop_
 _atom_site_type_symbol
 _atom_site_label
 _atom_site_symmetry_multiplicity
 _atom_site_fract_x
 _atom_site_fract_y
 _atom_site_fract_z
 _atom_site_occupancy
  Cs  Cs0  1  -0.00023985  -0.00025536  0.99914829  1
  Cs  Cs1  1  -0.00080635  -0.00073784  0.24914642  1
  Cs  Cs2  1  -0.00016033  -0.00029057  0.49902004  1
  Cs  Cs3  1  -0.00001481  0.00018981  0.74906737  1
  Cs  Cs4  1  0.49963984  -0.00013383  0.99915086  1
  Cs  Cs5  1  0.50014465  0.00002663  0.24910408  1
  Cs  Cs6  1  0.49977028  -0.00007434  0.49911174  1
  Cs  Cs7  1  0.49949773  -0.00067692  0.74902240  1
  Cs  Cs8  1  0.24987840  0.24973852  0.99916237  1
  Cs  Cs9  1  0.25004431  0.25015773  0.24909968  1
  Cs  Cs10  1  0.24993706  0.24974433  0.49906647  1
  Cs  Cs11  1  0.24938000  0.24957826  0.74900830  1
  Cs  Cs12  1  0.99984427  0.49988377  -0.00094344  1
  Cs  Cs13  1  0.00020710  0.50002394  0.24904671  1
  Cs  Cs14  1  -0.00034175  0.49981382  0.49901835  1
  Cs  Cs15  1  -0.00050474  0.49937689  0.74900544  1
  Cs  Cs16  1  0.74968948  0.24980709  0.99908920  1
  Cs  Cs17  1  0.74940212  0.24926619  0.24910521  1
  Cs  Cs18  1  0.74974009  0.24985740  0.49905130  1
  Cs  Cs19  1  0.75013878  0.24994661  0.74905520  1
  Cs  Cs20  1  0.49988584  0.49969454  -0.00092520  1
  Cs  Cs21  1  0.49924076  0.49949724  0.24909593  1
  Cs  Cs22  1  0.49984856  0.49971089  0.49901288  1
  Cs  Cs23  1  0.49996746  0.50004753  0.74902444  1
  Cs  Cs24  1  0.24978850  0.74989696  0.99911836  1
  Cs  Cs25  1  0.24933812  0.74920118  0.24907843  1
  Cs  Cs26  1  0.24964546  0.74986374  0.49896680  1
  Cs  Cs27  1  0.25013949  0.75003843  0.74900993  1
  Cs  Cs28  1  0.74988832  0.74981373  -0.00098909  1
  Cs  Cs29  1  0.74999248  0.75018871  0.24908860  1
  Cs  Cs30  1  0.74979476  0.74965949  0.49905177  1
  Cs  Cs31  1  0.74942518  0.74950438  0.74903839  1
  F  F32  1  -0.00026617  0.24967928  0.00475269  1
  F  F33  1  -0.00031178  0.24970032  0.24348419  1
  F  F34  1  -0.00019470  0.24978249  0.50559944  1
  F  F35  1  -0.00018291  0.24982175  0.74198928  1
  F  F36  1  0.49968702  0.24961557  -0.00629829  1
  F  F37  1  0.49972510  0.24981595  0.25580158  1
  F  F38  1  0.49990227  0.24983626  0.49236427  1
  F  F39  1  0.49978659  0.24968678  0.75449840  1
  F  F40  1  0.24971663  0.49983596  0.00521795  1
  F  F41  1  0.24975000  0.49978192  0.24249036  1
  F  F42  1  0.24974304  0.49973933  0.50443461  1
  F  F43  1  0.24968754  0.49978746  0.74363769  1
  F  F44  1  -0.00019431  0.74981353  -0.00628288  1
  F  F45  1  -0.00038159  0.74963517  0.25578134  1
  F  F46  1  -0.00025527  0.74980038  0.49247845  1
  F  F47  1  -0.00014435  0.74986570  0.75418135  1
  F  F48  1  0.74996377  0.49992748  -0.00768964  1
  F  F49  1  0.74975877  0.49981745  0.25430140  1
  F  F50  1  0.74980301  0.49973362  0.49333823  1
  F  F51  1  0.74975496  0.49972816  0.75602771  1
  F  F52  1  0.49972242  0.74975236  0.00476869  1
  F  F53  1  0.49970435  0.74982756  0.24340435  1
  F  F54  1  0.49971398  0.74981199  0.50570940  1
  F  F55  1  0.49972151  0.74963649  0.74198793  1
  F  F56  1  0.24960135  0.99972941  0.99243674  1
  F  F57  1  0.24979891  -0.00021451  0.25434355  1
  F  F58  1  0.24972178  -0.00027369  0.49336564  1
  F  F59  1  0.24967442  -0.00024136  0.75590450  1
  F  F60  1  0.74967676  -0.00025740  0.00530391  1
  F  F61  1  0.74977169  -0.00024483  0.24256669  1
  F  F62  1  0.74990430  -0.00019671  0.50455142  1
  F  F63  1  0.74979523  -0.00024277  0.74365952  1
  F  F64  1  0.13277086  0.11657797  0.12412099  1
  F  F65  1  0.11676360  0.13271783  0.37393589  1
  F  F66  1  0.12943142  0.12012375  0.62392341  1
  F  F67  1  0.12015569  0.12925348  0.87406048  1
  F  F68  1  0.62096965  0.12851176  0.12408343  1
  F  F69  1  0.62893214  0.12069713  0.37420554  1
  F  F70  1  0.61706062  0.13249151  0.62402645  1
  F  F71  1  0.63241433  0.11698903  0.87412437  1
  F  F72  1  0.37849795  0.37099380  0.12391831  1
  F  F73  1  0.37059338  0.37890705  0.37416730  1
  F  F74  1  0.38248048  0.36697274  0.62399321  1
  F  F75  1  0.36701202  0.38240118  0.87415421  1
  F  F76  1  0.12095432  0.62875690  0.12393929  1
  F  F77  1  0.12867254  0.62063063  0.37414709  1
  F  F78  1  0.11715803  0.63232216  0.62388672  1
  F  F79  1  0.13247869  0.61727516  0.87402563  1
  F  F80  1  0.86655324  0.38292250  0.12402954  1
  F  F81  1  0.88276368  0.36669590  0.37387031  1
  F  F82  1  0.87006078  0.37942854  0.62394120  1
  F  F83  1  0.87931048  0.37016742  0.87415398  1
  F  F84  1  0.63299289  0.61656454  0.12398788  1
  F  F85  1  0.61646753  0.63294619  0.37390362  1
  F  F86  1  0.62940925  0.61997447  0.62399141  1
  F  F87  1  0.62025457  0.62925156  0.87408101  1
  F  F88  1  0.36658119  0.88297580  0.12412923  1
  F  F89  1  0.38275583  0.86678541  0.37395846  1
  F  F90  1  0.37008481  0.87942476  0.62390841  1
  F  F91  1  0.37925149  0.87027419  0.87407367  1
  F  F92  1  0.87854949  0.87096925  0.12402254  1
  F  F93  1  0.87059818  0.87878660  0.37419620  1
  F  F94  1  0.88229648  0.86724199  0.62400195  1
  F  F95  1  0.86718009  0.88244761  0.87404640  1
  F  F96  1  0.87713785  0.12719333  0.12404342  1
  F  F97  1  0.87249034  0.12239830  0.37412084  1
  F  F98  1  0.87261904  0.12259886  0.62393062  1
  F  F99  1  0.87693418  0.12692266  0.87414834  1
  F  F100  1  0.37751368  0.12751758  0.12429141  1
  F  F101  1  0.37224083  0.12226096  0.37398813  1
  F  F102  1  0.37278623  0.12272903  0.62413379  1
  F  F103  1  0.37698300  0.12704882  0.87407008  1
  F  F104  1  0.12226462  0.37240814  0.12396441  1
  F  F105  1  0.12707439  0.37707732  0.37408440  1
  F  F106  1  0.12703706  0.37701563  0.62388643  1
  F  F107  1  0.12264121  0.37265392  0.87414769  1
  F  F108  1  0.87746184  0.62748714  0.12421278  1
  F  F109  1  0.87212905  0.62215850  0.37393856  1
  F  F110  1  0.87274941  0.62282054  0.62415965  1
  F  F111  1  0.87735880  0.62723735  0.87398396  1
  F  F112  1  0.62200739  0.37207158  0.12415830  1
  F  F113  1  0.62734274  0.37743205  0.37389244  1
  F  F114  1  0.62680140  0.37673118  0.62412561  1
  F  F115  1  0.62236280  0.37235567  0.87414014  1
  F  F116  1  0.37720942  0.62715345  0.12396770  1
  F  F117  1  0.37228598  0.62239466  0.37409796  1
  F  F118  1  0.37244950  0.62246513  0.62389330  1
  F  F119  1  0.37698992  0.62697902  0.87412259  1
  F  F120  1  0.12212786  0.87218195  0.12437202  1
  F  F121  1  0.12729993  0.87729561  0.37387975  1
  F  F122  1  0.12668374  0.87676368  0.62415346  1
  F  F123  1  0.12238573  0.87242026  0.87403254  1
  F  F124  1  0.62238193  0.87230621  0.12400915  1
  F  F125  1  0.62713289  0.87721914  0.37417606  1
  F  F126  1  0.62702614  0.87695134  0.62401102  1
  F  F127  1  0.62253076  0.87258351  0.87412004  1
  Zn  Zn128  1  -0.00025748  0.24960325  0.12412560  1
  Zn  Zn129  1  -0.00017675  0.24976921  0.37341855  1
  Zn  Zn130  1  -0.00018196  0.24969720  0.62380941  1
  Zn  Zn131  1  -0.00013188  0.24983138  0.87502037  1
  Zn  Zn132  1  0.49981626  0.24982419  0.12339287  1
  Zn  Zn133  1  0.49968927  0.24972622  0.37407949  1
  Zn  Zn134  1  0.49988770  0.24983827  0.62498303  1
  Zn  Zn135  1  0.49968009  0.24966022  0.87404621  1
  Zn  Zn136  1  0.24976152  0.49974698  0.12387698  1
  Zn  Zn137  1  0.24968118  0.49978106  0.37485477  1
  Zn  Zn138  1  0.24958176  0.49992483  0.62398705  1
  Zn  Zn139  1  0.24982462  0.49990629  0.87357359  1
  Zn  Zn140  1  -0.00023288  0.74986901  0.12327986  1
  Zn  Zn141  1  -0.00037471  0.74968998  0.37409061  1
  Zn  Zn142  1  -0.00012658  0.74992481  0.62498049  1
  Zn  Zn143  1  -0.00020470  0.74976520  0.87391412  1
  Zn  Zn144  1  0.74992626  0.49992459  0.12504075  1
  Zn  Zn145  1  0.74981369  0.49968161  0.37385126  1
  Zn  Zn146  1  0.74983293  0.49978916  0.62329345  1
  Zn  Zn147  1  0.74973569  0.49964575  0.87410307  1
  Zn  Zn148  1  0.49972801  0.74968759  0.12408898  1
  Zn  Zn149  1  0.49971924  0.74990532  0.37342322  1
  Zn  Zn150  1  0.49974333  0.74972723  0.62387215  1
  Zn  Zn151  1  0.49980117  0.74979550  0.87499066  1
  Zn  Zn152  1  0.24969388  -0.00031490  0.12513964  1
  Zn  Zn153  1  0.24968299  -0.00018983  0.37388493  1
  Zn  Zn154  1  0.24984093  -0.00015762  0.62329269  1
  Zn  Zn155  1  0.24965121  -0.00027268  0.87410048  1
  Zn  Zn156  1  0.74961250  -0.00026328  0.12395320  1
  Zn  Zn157  1  0.74978029  -0.00019117  0.37487396  1
  Zn  Zn158  1  0.74995907  -0.00043820  0.62403555  1
  Zn  Zn159  1  0.74985447  -0.00017652  0.87357858  1
