# generated using pymatgen
data_CsZnCl3
_symmetry_space_group_name_H-M   'P 1'
_cell_length_a   14.36749763
_cell_length_b   14.36749763
_cell_length_c   20.31871000
_cell_angle_alpha   90.00000000
_cell_angle_beta   90.00000000
_cell_angle_gamma   90.00000000
_symmetry_Int_Tables_number   1
_chemical_formula_structural   CsZnCl3
_chemical_formula_sum   'Cs32 Zn32 Cl96'
_cell_volume   4194.28946858
_cell_formula_units_Z   32
loop_
 _symmetry_equiv_pos_site_id
 _symmetry_equiv_pos_as_xyz
  1  'x, y, z'
loop_
 _atom_site_type_symbol
 _atom_site_label
 _atom_site_symmetry_multiplicity
 _atom_site_fract_x
 _atom_site_fract_y
 _atom_site_fract_z
 _atom_site_occupancy
  Cl  Cl0  1  0.00425919  0.25315654  0.98703976  1
  Cl  Cl1  1  0.00763471  0.24519631  0.25745370  1
  Cl  Cl2  1  0.00215898  0.24796539  0.49022863  1
  Cl  Cl3  1  0.00245584  0.25421592  0.76681329  1
  Cl  Cl4  1  0.51051974  0.24373570  0.01792917  1
  Cl  Cl5  1  0.51225706  0.24691878  0.23129717  1
  Cl  Cl6  1  0.50578044  0.25034351  0.50826054  1
  Cl  Cl7  1  0.49653595  0.24684331  0.73991513  1
  Cl  Cl8  1  0.25322471  0.50299070  0.99940525  1
  Cl  Cl9  1  0.24999627  0.51154608  0.26933218  1
  Cl  Cl10  1  0.24231069  0.51070974  0.48279862  1
  Cl  Cl11  1  0.24189486  0.49073079  0.74859382  1
  Cl  Cl12  1  0.99178452  0.75547771  0.01756355  1
  Cl  Cl13  1  0.98749787  0.75177195  0.22932121  1
  Cl  Cl14  1  0.99890849  0.74971356  0.50039218  1
  Cl  Cl15  1  0.00866614  0.75833299  0.75130119  1
  Cl  Cl16  1  0.74199087  0.50712340  0.98495962  1
  Cl  Cl17  1  0.74440170  0.48772137  0.25622765  1
  Cl  Cl18  1  0.74216902  0.49021487  0.49000311  1
  Cl  Cl19  1  0.74492533  0.50894653  0.76709004  1
  Cl  Cl20  1  0.49283213  0.74157820  0.00873991  1
  Cl  Cl21  1  0.49271884  0.74769022  0.24347501  1
  Cl  Cl22  1  0.50887336  0.74233296  0.51527278  1
  Cl  Cl23  1  0.50673542  0.74102960  0.73276701  1
  Cl  Cl24  1  0.24944868  0.00222527  0.00936583  1
  Cl  Cl25  1  0.24745160  0.00892940  0.24217761  1
  Cl  Cl26  1  0.24958267  0.00028045  0.51274403  1
  Cl  Cl27  1  0.25042285  0.99732687  0.73294641  1
  Cl  Cl28  1  0.74735554  0.00195039  0.99106299  1
  Cl  Cl29  1  0.75081524  0.98914075  0.26827071  1
  Cl  Cl30  1  0.75613962  0.98828004  0.48114045  1
  Cl  Cl31  1  0.75186952  0.00123120  0.76132857  1
  Cl  Cl32  1  0.11873090  0.14915406  0.12278198  1
  Cl  Cl33  1  0.14819237  0.11741076  0.37629824  1
  Cl  Cl34  1  0.12923420  0.12457376  0.62450459  1
  Cl  Cl35  1  0.12400762  0.12767423  0.87592515  1
  Cl  Cl36  1  0.64081199  0.10481794  0.12774942  1
  Cl  Cl37  1  0.62651826  0.12811884  0.37544030  1
  Cl  Cl38  1  0.65176658  0.11241926  0.62430071  1
  Cl  Cl39  1  0.60091707  0.13431597  0.87511533  1
  Cl  Cl40  1  0.37821803  0.38048774  0.12595232  1
  Cl  Cl41  1  0.37842970  0.37712978  0.37649706  1
  Cl  Cl42  1  0.35071305  0.37775936  0.61668869  1
  Cl  Cl43  1  0.38361317  0.34313950  0.87728807  1
  Cl  Cl44  1  0.12905660  0.62642038  0.12647723  1
  Cl  Cl45  1  0.10659388  0.63944428  0.36694997  1
  Cl  Cl46  1  0.13038887  0.60537971  0.61803432  1
  Cl  Cl47  1  0.11735743  0.64566013  0.88385889  1
  Cl  Cl48  1  0.90112962  0.36143741  0.12413290  1
  Cl  Cl49  1  0.86359245  0.37041686  0.37371164  1
  Cl  Cl50  1  0.85575068  0.40018926  0.62802195  1
  Cl  Cl51  1  0.87893204  0.37635584  0.87742536  1
  Cl  Cl52  1  0.61096478  0.62128730  0.12609126  1
  Cl  Cl53  1  0.62388859  0.61153889  0.37332275  1
  Cl  Cl54  1  0.64731686  0.60971486  0.62676286  1
  Cl  Cl55  1  0.60275814  0.63811425  0.87267436  1
  Cl  Cl56  1  0.37488020  0.86650150  0.12613765  1
  Cl  Cl57  1  0.36336503  0.90280199  0.37589511  1
  Cl  Cl58  1  0.37489853  0.87626282  0.62240824  1
  Cl  Cl59  1  0.39528866  0.84998402  0.87166508  1
  Cl  Cl60  1  0.85578087  0.88679976  0.12686524  1
  Cl  Cl61  1  0.88645795  0.85398912  0.36787808  1
  Cl  Cl62  1  0.87099360  0.90685129  0.62470109  1
  Cl  Cl63  1  0.90133832  0.87500973  0.88207223  1
  Cl  Cl64  1  0.87685536  0.12147470  0.12495422  1
  Cl  Cl65  1  0.89153507  0.12356974  0.37427435  1
  Cl  Cl66  1  0.88877898  0.15608844  0.62863856  1
  Cl  Cl67  1  0.86437439  0.12060140  0.87629233  1
  Cl  Cl68  1  0.36836257  0.11884766  0.12517282  1
  Cl  Cl69  1  0.39346243  0.14294227  0.37181266  1
  Cl  Cl70  1  0.38951527  0.12995825  0.62235758  1
  Cl  Cl71  1  0.36443259  0.09345600  0.87166844  1
  Cl  Cl72  1  0.14350585  0.39301564  0.13274638  1
  Cl  Cl73  1  0.11612048  0.36895190  0.37397747  1
  Cl  Cl74  1  0.09890922  0.36750188  0.62561004  1
  Cl  Cl75  1  0.13779878  0.39407022  0.87567490  1
  Cl  Cl76  1  0.85606185  0.60150452  0.12356371  1
  Cl  Cl77  1  0.87134021  0.61804287  0.37290185  1
  Cl  Cl78  1  0.89003091  0.64735979  0.62861969  1
  Cl  Cl79  1  0.87119370  0.63322467  0.88185787  1
  Cl  Cl80  1  0.65040490  0.38309763  0.11979710  1
  Cl  Cl81  1  0.61336787  0.36220652  0.37142380  1
  Cl  Cl82  1  0.61282368  0.36710537  0.62785264  1
  Cl  Cl83  1  0.62144658  0.37538902  0.87527431  1
  Cl  Cl84  1  0.36468613  0.61636564  0.13180973  1
  Cl  Cl85  1  0.38587618  0.65162305  0.37978185  1
  Cl  Cl86  1  0.37662650  0.61961942  0.61950215  1
  Cl  Cl87  1  0.35967575  0.60388968  0.86987233  1
  Cl  Cl88  1  0.12759041  0.89063726  0.12663500  1
  Cl  Cl89  1  0.12213274  0.87716071  0.37293026  1
  Cl  Cl90  1  0.11384294  0.85729241  0.62506814  1
  Cl  Cl91  1  0.15224453  0.88429726  0.87324315  1
  Cl  Cl92  1  0.62067206  0.87079001  0.12493500  1
  Cl  Cl93  1  0.60436954  0.85657037  0.37724557  1
  Cl  Cl94  1  0.63379118  0.87068498  0.62339526  1
  Cl  Cl95  1  0.63805482  0.87900379  0.87562340  1
  Cs  Cs96  1  0.00319253  0.00526878  0.00427713  1
  Cs  Cs97  1  0.99763278  0.99740463  0.24945577  1
  Cs  Cs98  1  0.00339264  0.99817546  0.49926268  1
  Cs  Cs99  1  0.00695079  0.00547646  0.74860076  1
  Cs  Cs100  1  0.49930564  0.00045426  0.00047222  1
  Cs  Cs101  1  0.50338975  0.00074168  0.25167488  1
  Cs  Cs102  1  0.50455788  0.99826973  0.49858534  1
  Cs  Cs103  1  0.50057674  0.99456937  0.74922801  1
  Cs  Cs104  1  0.24969764  0.25449274  0.00097395  1
  Cs  Cs105  1  0.25528764  0.25486632  0.25028866  1
  Cs  Cs106  1  0.24987141  0.24743036  0.49577624  1
  Cs  Cs107  1  0.24549603  0.24579028  0.75205655  1
  Cs  Cs108  1  0.99933263  0.49991642  0.00341810  1
  Cs  Cs109  1  0.99976499  0.50176129  0.24790394  1
  Cs  Cs110  1  0.99485638  0.49965666  0.49750901  1
  Cs  Cs111  1  0.99359800  0.50015953  0.75105269  1
  Cs  Cs112  1  0.75291202  0.25138534  0.00073546  1
  Cs  Cs113  1  0.75137524  0.24377293  0.24629707  1
  Cs  Cs114  1  0.75264631  0.24392020  0.50092955  1
  Cs  Cs115  1  0.75174369  0.25402533  0.75110417  1
  Cs  Cs116  1  0.49808980  0.49383063  0.99817633  1
  Cs  Cs117  1  0.49505146  0.49440468  0.25070429  1
  Cs  Cs118  1  0.49535065  0.50222732  0.49750033  1
  Cs  Cs119  1  0.49831797  0.50075389  0.75093590  1
  Cs  Cs120  1  0.25147622  0.75173507  0.00093252  1
  Cs  Cs121  1  0.24745303  0.75229748  0.25335697  1
  Cs  Cs122  1  0.25193977  0.75560433  0.49745171  1
  Cs  Cs123  1  0.25699388  0.75106468  0.74860244  1
  Cs  Cs124  1  0.74932981  0.74737683  0.00515560  1
  Cs  Cs125  1  0.74798434  0.74754518  0.24925753  1
  Cs  Cs126  1  0.75303351  0.74768451  0.49848811  1
  Cs  Cs127  1  0.75239825  0.74842220  0.74933124  1
  Zn  Zn128  1  0.99232388  0.23754069  0.13611824  1
  Zn  Zn129  1  0.98627404  0.26195482  0.37246214  1
  Zn  Zn130  1  0.01640872  0.23879154  0.61005790  1
  Zn  Zn131  1  0.98668063  0.23897029  0.87684831  1
  Zn  Zn132  1  0.47662055  0.25038724  0.12461725  1
  Zn  Zn133  1  0.50237807  0.25266960  0.38780340  1
  Zn  Zn134  1  0.47800683  0.26962407  0.62387229  1
  Zn  Zn135  1  0.50998594  0.25754494  0.85990453  1
  Zn  Zn136  1  0.25242509  0.50464803  0.11600111  1
  Zn  Zn137  1  0.24701156  0.47598667  0.37598276  1
  Zn  Zn138  1  0.26238906  0.51702944  0.64023636  1
  Zn  Zn139  1  0.23367566  0.51538118  0.88031271  1
  Zn  Zn140  1  0.02957522  0.75468388  0.12392207  1
  Zn  Zn141  1  0.00162702  0.75182117  0.38321451  1
  Zn  Zn142  1  0.01609505  0.73681564  0.61900564  1
  Zn  Zn143  1  0.98602113  0.73449043  0.85969590  1
  Zn  Zn144  1  0.73444627  0.50960341  0.13726911  1
  Zn  Zn145  1  0.75609344  0.50739290  0.37207086  1
  Zn  Zn146  1  0.73152680  0.48496783  0.60858380  1
  Zn  Zn147  1  0.75514609  0.48286236  0.87588179  1
  Zn  Zn148  1  0.50882930  0.75485831  0.12648731  1
  Zn  Zn149  1  0.51263159  0.73539612  0.36181256  1
  Zn  Zn150  1  0.49697532  0.76778651  0.62413621  1
  Zn  Zn151  1  0.51748104  0.76224746  0.89155433  1
  Zn  Zn152  1  0.26506962  0.98800186  0.12696616  1
  Zn  Zn153  1  0.23800519  0.99178158  0.36269725  1
  Zn  Zn154  1  0.26487835  0.01200477  0.62297555  1
  Zn  Zn155  1  0.23576545  0.01221981  0.88957579  1
  Zn  Zn156  1  0.75239901  0.99983917  0.11277409  1
  Zn  Zn157  1  0.75413082  0.02623038  0.37483927  1
  Zn  Zn158  1  0.74286156  0.98973134  0.64013998  1
  Zn  Zn159  1  0.77208089  0.98078186  0.87654497  1
