# generated using pymatgen
data_CsZnI3
_symmetry_space_group_name_H-M   'P 1'
_cell_length_a   16.48319647
_cell_length_b   16.48319647
_cell_length_c   23.31076000
_cell_angle_alpha   90.00000000
_cell_angle_beta   90.00000000
_cell_angle_gamma   90.00000000
_symmetry_Int_Tables_number   1
_chemical_formula_structural   CsZnI3
_chemical_formula_sum   'Cs32 Zn32 I96'
_cell_volume   6333.43479165
_cell_formula_units_Z   32
loop_
 _symmetry_equiv_pos_site_id
 _symmetry_equiv_pos_as_xyz
  1  'x, y, z'
loop_
 _atom_site_type_symbol
 _atom_site_label
 _atom_site_symmetry_multiplicity
 _atom_site_fract_x
 _atom_site_fract_y
 _atom_site_fract_z
 _atom_site_occupancy
  Cs  Cs0  1  0.02363971  0.02755985  0.01771269  1
  Cs  Cs1  1  0.97122714  0.02923349  0.23643950  1
  Cs  Cs2  1  0.00875283  0.00822120  0.48264347  1
  Cs  Cs3  1  0.02061991  0.98757512  0.73947276  1
  Cs  Cs4  1  0.47804682  0.96522324  0.98681174  1
  Cs  Cs5  1  0.50802742  0.99445697  0.28197478  1
  Cs  Cs6  1  0.52739940  0.99392980  0.48555643  1
  Cs  Cs7  1  0.51208692  0.02331101  0.72112408  1
  Cs  Cs8  1  0.27469202  0.21746611  0.99745401  1
  Cs  Cs9  1  0.28227536  0.24121889  0.25028116  1
  Cs  Cs10  1  0.24909022  0.24556652  0.51702697  1
  Cs  Cs11  1  0.23742557  0.23445850  0.75019057  1
  Cs  Cs12  1  0.01878861  0.52967214  0.99836757  1
  Cs  Cs13  1  0.02377924  0.49318527  0.23042291  1
  Cs  Cs14  1  0.96365641  0.48630304  0.51600725  1
  Cs  Cs15  1  0.98880960  0.50473492  0.75505122  1
  Cs  Cs16  1  0.72434283  0.28021000  0.98487796  1
  Cs  Cs17  1  0.76306621  0.25456421  0.24537284  1
  Cs  Cs18  1  0.76761700  0.24486888  0.49911337  1
  Cs  Cs19  1  0.76795110  0.25234924  0.77303374  1
  Cs  Cs20  1  0.47559323  0.45417593  0.98674212  1
  Cs  Cs21  1  0.50319345  0.46964404  0.23266471  1
  Cs  Cs22  1  0.45551824  0.49201297  0.51591797  1
  Cs  Cs23  1  0.45253800  0.48754547  0.74816938  1
  Cs  Cs24  1  0.26810945  0.70370078  0.99546681  1
  Cs  Cs25  1  0.25643156  0.72826463  0.26341587  1
  Cs  Cs26  1  0.24436624  0.75293444  0.50267170  1
  Cs  Cs27  1  0.24370398  0.75026991  0.74769263  1
  Cs  Cs28  1  0.72079186  0.75966863  0.03047146  1
  Cs  Cs29  1  0.75529094  0.74470643  0.25084043  1
  Cs  Cs30  1  0.77117970  0.76910267  0.50056275  1
  Cs  Cs31  1  0.73757916  0.76975288  0.74626546  1
  I  I32  1  0.05079442  0.28774531  0.01748204  1
  I  I33  1  0.99745423  0.26226341  0.21307530  1
  I  I34  1  0.01670379  0.24560120  0.50204517  1
  I  I35  1  0.99200408  0.21372935  0.76257750  1
  I  I36  1  0.50601745  0.20447419  0.98668835  1
  I  I37  1  0.51388512  0.23062975  0.24826851  1
  I  I38  1  0.52926063  0.27852934  0.52768805  1
  I  I39  1  0.47123327  0.24896016  0.72107887  1
  I  I40  1  0.23547520  0.45686507  0.99196843  1
  I  I41  1  0.27131781  0.50019016  0.25478337  1
  I  I42  1  0.19330845  0.51965147  0.52465403  1
  I  I43  1  0.22135310  0.52261700  0.73179227  1
  I  I44  1  0.05249078  0.78296761  0.98655776  1
  I  I45  1  0.98133732  0.71192661  0.26739208  1
  I  I46  1  0.99400956  0.72976546  0.48476549  1
  I  I47  1  0.96324908  0.77111904  0.78612425  1
  I  I48  1  0.69626276  0.51413423  0.98551205  1
  I  I49  1  0.79990267  0.49533905  0.24913243  1
  I  I50  1  0.68578113  0.47590395  0.51043945  1
  I  I51  1  0.76734014  0.54505338  0.78210338  1
  I  I52  1  0.49327720  0.73442760  0.02505962  1
  I  I53  1  0.48296798  0.73290240  0.22928887  1
  I  I54  1  0.55701455  0.69527896  0.50067468  1
  I  I55  1  0.49098386  0.80339257  0.73676135  1
  I  I56  1  0.24467915  0.96268621  0.99869686  1
  I  I57  1  0.27543597  0.99215124  0.27652187  1
  I  I58  1  0.23565350  0.00007980  0.47693045  1
  I  I59  1  0.28125094  0.97901842  0.73015595  1
  I  I60  1  0.69115402  0.04491129  0.97905089  1
  I  I61  1  0.73607023  0.01384796  0.26310669  1
  I  I62  1  0.76194887  0.00564125  0.48218881  1
  I  I63  1  0.77667957  0.00329034  0.77952931  1
  I  I64  1  0.16228470  0.10653973  0.13813845  1
  I  I65  1  0.11295053  0.14383139  0.34752769  1
  I  I66  1  0.13367388  0.12333357  0.62370772  1
  I  I67  1  0.12618936  0.13716994  0.88684713  1
  I  I68  1  0.63895837  0.13442656  0.13228199  1
  I  I69  1  0.62288417  0.15086564  0.39145834  1
  I  I70  1  0.67306107  0.15115893  0.64208961  1
  I  I71  1  0.59830153  0.13452821  0.84575209  1
  I  I72  1  0.39809934  0.31958039  0.11831239  1
  I  I73  1  0.43889340  0.38356203  0.37868571  1
  I  I74  1  0.34907444  0.37385112  0.62503759  1
  I  I75  1  0.37373744  0.32340371  0.86644780  1
  I  I76  1  0.14042990  0.63355382  0.12459062  1
  I  I77  1  0.08939921  0.56889675  0.38148205  1
  I  I78  1  0.07011165  0.65191282  0.64712761  1
  I  I79  1  0.10785817  0.62726868  0.86811128  1
  I  I80  1  0.87134570  0.42218463  0.08755978  1
  I  I81  1  0.94165567  0.37666149  0.36145583  1
  I  I82  1  0.85170883  0.34926906  0.63252675  1
  I  I83  1  0.88588153  0.40052201  0.89027772  1
  I  I84  1  0.64859080  0.61176439  0.13804762  1
  I  I85  1  0.58328523  0.60997128  0.34701469  1
  I  I86  1  0.59203891  0.64074118  0.65843119  1
  I  I87  1  0.56383059  0.62519824  0.86566160  1
  I  I88  1  0.31427973  0.84771829  0.13385407  1
  I  I89  1  0.40250394  0.83615990  0.38743317  1
  I  I90  1  0.41422557  0.86928197  0.58947330  1
  I  I91  1  0.37345873  0.82389359  0.88480217  1
  I  I92  1  0.83573169  0.92370790  0.11401501  1
  I  I93  1  0.90021725  0.88577995  0.36360028  1
  I  I94  1  0.88929962  0.84498258  0.62907362  1
  I  I95  1  0.87298574  0.90498591  0.93597940  1
  I  I96  1  0.86126835  0.15600407  0.08935566  1
  I  I97  1  0.87818161  0.15289422  0.36941657  1
  I  I98  1  0.89590625  0.08979600  0.62019552  1
  I  I99  1  0.88334969  0.14556927  0.90569934  1
  I  I100  1  0.41392501  0.06300551  0.13302307  1
  I  I101  1  0.38241582  0.14673655  0.39984254  1
  I  I102  1  0.39590213  0.11018077  0.59128496  1
  I  I103  1  0.37127092  0.07512728  0.86678200  1
  I  I104  1  0.16777965  0.37371324  0.13932004  1
  I  I105  1  0.20317282  0.35440820  0.38562002  1
  I  I106  1  0.10425792  0.36646141  0.63745190  1
  I  I107  1  0.13128691  0.37443382  0.85288282  1
  I  I108  1  0.89150375  0.66586012  0.11412090  1
  I  I109  1  0.83358395  0.60939099  0.39587628  1
  I  I110  1  0.83546744  0.60374920  0.62723627  1
  I  I111  1  0.85485188  0.65326693  0.92851726  1
  I  I112  1  0.63652969  0.36616647  0.12274174  1
  I  I113  1  0.68282669  0.37519790  0.36783100  1
  I  I114  1  0.63960865  0.40924973  0.67566073  1
  I  I115  1  0.61516325  0.38358340  0.85414011  1
  I  I116  1  0.37844558  0.56969005  0.11301444  1
  I  I117  1  0.34548174  0.60698538  0.40249130  1
  I  I118  1  0.35476064  0.63828819  0.62473171  1
  I  I119  1  0.34736341  0.57672504  0.87037637  1
  I  I120  1  0.07680498  0.87265692  0.14809917  1
  I  I121  1  0.14513744  0.84501313  0.37214039  1
  I  I122  1  0.13715767  0.88558106  0.60834227  1
  I  I123  1  0.14626154  0.89142926  0.85582561  1
  I  I124  1  0.59778456  0.89322047  0.13809737  1
  I  I125  1  0.64966004  0.85383639  0.37339568  1
  I  I126  1  0.66048292  0.90661106  0.62163427  1
  I  I127  1  0.63846757  0.84535080  0.89000969  1
  Zn  Zn128  1  0.94601714  0.28292019  0.10991672  1
  Zn  Zn129  1  0.05489457  0.28465873  0.39790885  1
  Zn  Zn130  1  0.98137019  0.28590904  0.66786072  1
  Zn  Zn131  1  0.95810290  0.27568178  0.92825284  1
  Zn  Zn132  1  0.49225478  0.19744428  0.09604419  1
  Zn  Zn133  1  0.50671133  0.24639190  0.35892867  1
  Zn  Zn134  1  0.57513087  0.27203060  0.63208411  1
  Zn  Zn135  1  0.51372914  0.26635637  0.83337903  1
  Zn  Zn136  1  0.23959016  0.50168705  0.10382695  1
  Zn  Zn137  1  0.23771481  0.51036560  0.36253466  1
  Zn  Zn138  1  0.24669489  0.49288903  0.62511467  1
  Zn  Zn139  1  0.20798465  0.50607680  0.87881615  1
  Zn  Zn140  1  0.01791033  0.74967524  0.09646116  1
  Zn  Zn141  1  0.05033617  0.72473523  0.36551412  1
  Zn  Zn142  1  0.02660775  0.77760933  0.59165025  1
  Zn  Zn143  1  0.94570852  0.77350042  0.89463074  1
  Zn  Zn144  1  0.73620995  0.48182576  0.14984476  1
  Zn  Zn145  1  0.70529087  0.52398371  0.39425689  1
  Zn  Zn146  1  0.69694170  0.53590422  0.61300068  1
  Zn  Zn147  1  0.72008474  0.56835918  0.88423657  1
  Zn  Zn148  1  0.46885527  0.78781600  0.12698034  1
  Zn  Zn149  1  0.53359882  0.75263402  0.39380320  1
  Zn  Zn150  1  0.47996393  0.72906550  0.59800245  1
  Zn  Zn151  1  0.50582499  0.77034827  0.84318038  1
  Zn  Zn152  1  0.26935599  0.00207583  0.10674119  1
  Zn  Zn153  1  0.25072472  0.05738945  0.37487912  1
  Zn  Zn154  1  0.26871096  0.04985967  0.63455489  1
  Zn  Zn155  1  0.22913464  0.01811316  0.88179090  1
  Zn  Zn156  1  0.70392732  0.99940138  0.08925115  1
  Zn  Zn157  1  0.81114755  0.01310122  0.36110205  1
  Zn  Zn158  1  0.79456483  0.97828048  0.59436785  1
  Zn  Zn159  1  0.74547739  0.96698312  0.88350209  1
