# generated using pymatgen
data_CsZnBr3
_symmetry_space_group_name_H-M   'P 1'
_cell_length_a   15.22404011
_cell_length_b   15.22404011
_cell_length_c   21.53004500
_cell_angle_alpha   90.00000000
_cell_angle_beta   90.00000000
_cell_angle_gamma   90.00000000
_symmetry_Int_Tables_number   1
_chemical_formula_structural   CsZnBr3
_chemical_formula_sum   'Cs32 Zn32 Br96'
_cell_volume   4990.04861403
_cell_formula_units_Z   32
loop_
 _symmetry_equiv_pos_site_id
 _symmetry_equiv_pos_as_xyz
  1  'x, y, z'
loop_
 _atom_site_type_symbol
 _atom_site_label
 _atom_site_symmetry_multiplicity
 _atom_site_fract_x
 _atom_site_fract_y
 _atom_site_fract_z
 _atom_site_occupancy
  Br  Br0  1  0.00296281  0.25079527  0.98210854  1
  Br  Br1  1  0.00315191  0.26250256  0.24718661  1
  Br  Br2  1  0.00865921  0.23193692  0.50697127  1
  Br  Br3  1  0.98269360  0.24480673  0.76873976  1
  Br  Br4  1  0.51977230  0.27434160  0.98342114  1
  Br  Br5  1  0.48199349  0.22376767  0.24930882  1
  Br  Br6  1  0.50304756  0.23011848  0.49753415  1
  Br  Br7  1  0.50389731  0.26246069  0.76513813  1
  Br  Br8  1  0.23184906  0.51909735  0.01949986  1
  Br  Br9  1  0.24138661  0.50187022  0.23278221  1
  Br  Br10  1  0.25555339  0.50102411  0.51897294  1
  Br  Br11  1  0.25265405  0.51017568  0.73356310  1
  Br  Br12  1  0.01075601  0.73819197  0.00160214  1
  Br  Br13  1  0.00343467  0.77084430  0.27226187  1
  Br  Br14  1  0.00154281  0.77294717  0.48348872  1
  Br  Br15  1  0.99669864  0.73684494  0.75013154  1
  Br  Br16  1  0.72229055  0.50040985  0.00618962  1
  Br  Br17  1  0.76130619  0.47288555  0.26659066  1
  Br  Br18  1  0.74817217  0.48886091  0.48078273  1
  Br  Br19  1  0.75097480  0.51542964  0.74788176  1
  Br  Br20  1  0.51224836  0.74940494  0.00950160  1
  Br  Br21  1  0.48186356  0.73876811  0.26370991  1
  Br  Br22  1  0.49854748  0.73790055  0.48282489  1
  Br  Br23  1  0.51806152  0.76352796  0.74505244  1
  Br  Br24  1  0.25965866  0.98848098  0.98298912  1
  Br  Br25  1  0.26157154  0.02484936  0.24584213  1
  Br  Br26  1  0.24192002  0.01691909  0.50953220  1
  Br  Br27  1  0.26713540  0.99187082  0.76624824  1
  Br  Br28  1  0.76398388  0.98026652  0.02377490  1
  Br  Br29  1  0.76818866  0.99349192  0.23218894  1
  Br  Br30  1  0.75330714  0.01972148  0.49871264  1
  Br  Br31  1  0.75212174  0.99388094  0.75026912  1
  Br  Br32  1  0.15116894  0.11518720  0.11245472  1
  Br  Br33  1  0.11564241  0.15477624  0.37279888  1
  Br  Br34  1  0.10373809  0.13276276  0.65696852  1
  Br  Br35  1  0.11761432  0.11935526  0.87208680  1
  Br  Br36  1  0.61941096  0.11774330  0.12365280  1
  Br  Br37  1  0.62525463  0.10495511  0.36516461  1
  Br  Br38  1  0.61377327  0.15568724  0.64020261  1
  Br  Br39  1  0.62785489  0.13258017  0.88192017  1
  Br  Br40  1  0.36719990  0.38004474  0.11899494  1
  Br  Br41  1  0.37136140  0.35803744  0.38100169  1
  Br  Br42  1  0.39920357  0.36181276  0.63001761  1
  Br  Br43  1  0.37555608  0.38978092  0.87938575  1
  Br  Br44  1  0.10723439  0.63786610  0.14386357  1
  Br  Br45  1  0.13567868  0.63604273  0.38192636  1
  Br  Br46  1  0.10728263  0.64552510  0.61217729  1
  Br  Br47  1  0.09135409  0.61622919  0.87319346  1
  Br  Br48  1  0.84538377  0.37514648  0.12750740  1
  Br  Br49  1  0.90514845  0.36751151  0.38688070  1
  Br  Br50  1  0.88461657  0.35214124  0.63339966  1
  Br  Br51  1  0.87084813  0.37536155  0.88117082  1
  Br  Br52  1  0.62646691  0.59868225  0.15374844  1
  Br  Br53  1  0.61700561  0.61332764  0.36374797  1
  Br  Br54  1  0.62848027  0.66103389  0.61311458  1
  Br  Br55  1  0.59928729  0.63938042  0.87720446  1
  Br  Br56  1  0.37500053  0.90298767  0.11914863  1
  Br  Br57  1  0.37342743  0.86886059  0.37950658  1
  Br  Br58  1  0.40075212  0.86873865  0.61598031  1
  Br  Br59  1  0.40367048  0.85862343  0.88107036  1
  Br  Br60  1  0.89818864  0.85518817  0.13464161  1
  Br  Br61  1  0.86147214  0.89808843  0.37231429  1
  Br  Br62  1  0.89393864  0.85798321  0.61752539  1
  Br  Br63  1  0.89306375  0.85180385  0.88053092  1
  Br  Br64  1  0.90004147  0.13763661  0.11590268  1
  Br  Br65  1  0.86340945  0.13119541  0.36676965  1
  Br  Br66  1  0.86466159  0.10060587  0.63689916  1
  Br  Br67  1  0.86869727  0.09005537  0.89415138  1
  Br  Br68  1  0.38793641  0.14629519  0.10516668  1
  Br  Br69  1  0.36123286  0.11487442  0.38588923  1
  Br  Br70  1  0.35874163  0.11253181  0.64539247  1
  Br  Br71  1  0.37645562  0.12643014  0.88359228  1
  Br  Br72  1  0.10027157  0.36004977  0.11191485  1
  Br  Br73  1  0.14351781  0.39430700  0.37723254  1
  Br  Br74  1  0.12654231  0.36330000  0.63181208  1
  Br  Br75  1  0.13546937  0.39370808  0.87324567  1
  Br  Br76  1  0.87284720  0.61989003  0.13651031  1
  Br  Br77  1  0.87975804  0.62144817  0.37950854  1
  Br  Br78  1  0.86126973  0.60285535  0.60977494  1
  Br  Br79  1  0.84521428  0.61946235  0.88302401  1
  Br  Br80  1  0.60658942  0.35643594  0.13057937  1
  Br  Br81  1  0.62322048  0.34874273  0.37594481  1
  Br  Br82  1  0.63976011  0.40167259  0.61813744  1
  Br  Br83  1  0.62877799  0.40628945  0.87190396  1
  Br  Br84  1  0.38218970  0.64858970  0.13376462  1
  Br  Br85  1  0.36566955  0.59738867  0.37609146  1
  Br  Br86  1  0.38493283  0.61831911  0.62266398  1
  Br  Br87  1  0.33845569  0.62110918  0.87481667  1
  Br  Br88  1  0.13709445  0.87341932  0.13203860  1
  Br  Br89  1  0.13816198  0.91198394  0.37511839  1
  Br  Br90  1  0.14480184  0.88278917  0.63894241  1
  Br  Br91  1  0.14583478  0.85277159  0.87004905  1
  Br  Br92  1  0.62016593  0.84943589  0.14676038  1
  Br  Br93  1  0.63134194  0.86917730  0.36956572  1
  Br  Br94  1  0.64353742  0.89949498  0.62224987  1
  Br  Br95  1  0.65715796  0.88055525  0.88970967  1
  Cs  Cs96  1  0.01238711  0.98735067  0.00624658  1
  Cs  Cs97  1  0.00936706  0.01143471  0.24679741  1
  Cs  Cs98  1  0.99566691  0.00265087  0.49159302  1
  Cs  Cs99  1  0.99526892  0.98168698  0.76054469  1
  Cs  Cs100  1  0.50706105  0.00045028  0.99928261  1
  Cs  Cs101  1  0.49818456  0.98880752  0.25057386  1
  Cs  Cs102  1  0.50308505  0.98696987  0.49154437  1
  Cs  Cs103  1  0.50421737  0.00458455  0.75690478  1
  Cs  Cs104  1  0.24393937  0.25579797  0.99431513  1
  Cs  Cs105  1  0.24431268  0.25965234  0.24308630  1
  Cs  Cs106  1  0.24451491  0.25236414  0.49792887  1
  Cs  Cs107  1  0.24940103  0.25016107  0.76376851  1
  Cs  Cs108  1  0.98916907  0.49979035  0.00219398  1
  Cs  Cs109  1  0.00047841  0.50212816  0.25650608  1
  Cs  Cs110  1  0.00446712  0.49288608  0.50463832  1
  Cs  Cs111  1  0.99490775  0.49543196  0.74623665  1
  Cs  Cs112  1  0.75170194  0.24492257  0.00427153  1
  Cs  Cs113  1  0.73901560  0.23684544  0.24545066  1
  Cs  Cs114  1  0.75458383  0.25700494  0.49767418  1
  Cs  Cs115  1  0.74310067  0.26659128  0.75707096  1
  Cs  Cs116  1  0.48616411  0.51174721  0.99937473  1
  Cs  Cs117  1  0.48676809  0.48172818  0.25491735  1
  Cs  Cs118  1  0.50567467  0.49504020  0.49478380  1
  Cs  Cs119  1  0.50247627  0.51019591  0.75133797  1
  Cs  Cs120  1  0.25781023  0.75389371  0.00549683  1
  Cs  Cs121  1  0.24642920  0.75542623  0.25718811  1
  Cs  Cs122  1  0.25268047  0.75994622  0.50293509  1
  Cs  Cs123  1  0.26504227  0.75011076  0.74482430  1
  Cs  Cs124  1  0.76127552  0.74558357  0.01001227  1
  Cs  Cs125  1  0.76279265  0.74488360  0.25774104  1
  Cs  Cs126  1  0.75684337  0.75702926  0.49305195  1
  Cs  Cs127  1  0.75992550  0.75451178  0.74887802  1
  Zn  Zn128  1  0.97841590  0.26903502  0.13258339  1
  Zn  Zn129  1  0.98461726  0.23806501  0.36340972  1
  Zn  Zn130  1  0.96929053  0.22425345  0.61294089  1
  Zn  Zn131  1  0.96596174  0.22622220  0.87689446  1
  Zn  Zn132  1  0.48889463  0.26364923  0.10148950  1
  Zn  Zn133  1  0.49340259  0.26848140  0.35349953  1
  Zn  Zn134  1  0.46455690  0.21370382  0.60271329  1
  Zn  Zn135  1  0.46852744  0.25307456  0.87356125  1
  Zn  Zn136  1  0.27459840  0.51684536  0.12524164  1
  Zn  Zn137  1  0.24209371  0.50952616  0.39314531  1
  Zn  Zn138  1  0.25720489  0.44835061  0.62706232  1
  Zn  Zn139  1  0.24760332  0.49807083  0.85745725  1
  Zn  Zn140  1  0.01635540  0.75807325  0.11521604  1
  Zn  Zn141  1  0.00158751  0.73330845  0.37786531  1
  Zn  Zn142  1  0.01059664  0.76106172  0.63820979  1
  Zn  Zn143  1  0.01567292  0.75445199  0.87760610  1
  Zn  Zn144  1  0.76221427  0.51655038  0.11199378  1
  Zn  Zn145  1  0.74648388  0.51631153  0.37194332  1
  Zn  Zn146  1  0.72976362  0.52594604  0.63362096  1
  Zn  Zn147  1  0.75811213  0.49233679  0.87093058  1
  Zn  Zn148  1  0.53131705  0.72000613  0.11682140  1
  Zn  Zn149  1  0.51507374  0.75552170  0.37204860  1
  Zn  Zn150  1  0.48561435  0.73828734  0.63006600  1
  Zn  Zn151  1  0.52990018  0.77492079  0.86274969  1
  Zn  Zn152  1  0.24910250  0.99488959  0.12822968  1
  Zn  Zn153  1  0.27136289  0.99084350  0.35871185  1
  Zn  Zn154  1  0.20606905  0.02603294  0.61477014  1
  Zn  Zn155  1  0.22576713  0.00170564  0.87429782  1
  Zn  Zn156  1  0.71784543  0.99413836  0.12758090  1
  Zn  Zn157  1  0.74448920  0.00298176  0.37476330  1
  Zn  Zn158  1  0.71766590  0.03442945  0.60939098  1
  Zn  Zn159  1  0.73034139  0.02033973  0.85733578  1
