# generated using pymatgen
data_HgBiCl3
_symmetry_space_group_name_H-M   'P 1'
_cell_length_a   15.43261398
_cell_length_b   15.43261398
_cell_length_c   21.82501100
_cell_angle_alpha   90.00000000
_cell_angle_beta   90.00000000
_cell_angle_gamma   90.00000000
_symmetry_Int_Tables_number   1
_chemical_formula_structural   HgBiCl3
_chemical_formula_sum   'Hg32 Bi32 Cl96'
_cell_volume   5197.96628110
_cell_formula_units_Z   32
loop_
 _symmetry_equiv_pos_site_id
 _symmetry_equiv_pos_as_xyz
  1  'x, y, z'
loop_
 _atom_site_type_symbol
 _atom_site_label
 _atom_site_symmetry_multiplicity
 _atom_site_fract_x
 _atom_site_fract_y
 _atom_site_fract_z
 _atom_site_occupancy
  Hg  Hg0  1  -0.00283388  -0.00448576  0.99662218  1
  Hg  Hg1  1  -0.00187412  0.00644760  0.24631281  1
  Hg  Hg2  1  0.00701458  0.00362704  0.49703220  1
  Hg  Hg3  1  0.00878137  -0.00473226  0.74699003  1
  Hg  Hg4  1  0.49326135  -0.00641558  -0.00025018  1
  Hg  Hg5  1  0.49222482  0.00333219  0.24652420  1
  Hg  Hg6  1  0.50363268  0.00753316  0.49677330  1
  Hg  Hg7  1  0.50091635  -0.00176650  0.74709177  1
  Hg  Hg8  1  0.24687820  0.24906805  -0.00283888  1
  Hg  Hg9  1  0.24318201  0.25757023  0.24935515  1
  Hg  Hg10  1  0.25293510  0.25908096  0.49623790  1
  Hg  Hg11  1  0.25671542  0.24671617  0.74692470  1
  Hg  Hg12  1  0.99328237  0.49576157  -0.00198018  1
  Hg  Hg13  1  0.99152118  0.50449915  0.24688404  1
  Hg  Hg14  1  0.00279076  0.50471216  0.49700505  1
  Hg  Hg15  1  0.00205186  0.49351968  0.74618972  1
  Hg  Hg16  1  0.74696069  0.24163142  0.99673743  1
  Hg  Hg17  1  0.74281352  0.25356125  0.24657984  1
  Hg  Hg18  1  0.75199521  0.25102862  0.49705528  1
  Hg  Hg19  1  0.75671632  0.24316015  0.74898050  1
  Hg  Hg20  1  0.49639368  0.49420333  -0.00336769  1
  Hg  Hg21  1  0.49866266  0.50429458  0.24702497  1
  Hg  Hg22  1  0.50725595  0.50736612  0.49921894  1
  Hg  Hg23  1  0.50845429  0.49737479  0.74686973  1
  Hg  Hg24  1  0.24582715  0.74223489  -0.00334144  1
  Hg  Hg25  1  0.24514248  0.75331602  0.24689569  1
  Hg  Hg26  1  0.25658915  0.75190403  0.49638902  1
  Hg  Hg27  1  0.25399243  0.74394446  0.74776987  1
  Hg  Hg28  1  0.74354569  0.74782247  -0.00389115  1
  Hg  Hg29  1  0.74676656  0.75675680  0.24744238  1
  Hg  Hg30  1  0.75521587  0.75907276  0.49697602  1
  Hg  Hg31  1  0.75477883  0.74724947  0.74697322  1
  Bi  Bi32  1  0.00034387  0.25955582  0.13409005  1
  Bi  Bi33  1  0.00961849  0.24826692  0.38408616  1
  Bi  Bi34  1  -0.00133310  0.23896887  0.63411817  1
  Bi  Bi35  1  0.98958014  0.25029868  0.88387247  1
  Bi  Bi36  1  0.50978135  0.25417666  0.12548352  1
  Bi  Bi37  1  0.50413863  0.23923295  0.37551253  1
  Bi  Bi38  1  0.48976646  0.24484580  0.62542540  1
  Bi  Bi39  1  0.49493694  0.25981094  0.87536601  1
  Bi  Bi40  1  0.25715966  0.50316630  0.13367402  1
  Bi  Bi41  1  0.26158146  0.49692783  0.38363127  1
  Bi  Bi42  1  0.24116509  0.49587515  0.63303760  1
  Bi  Bi43  1  0.23728965  0.50231146  0.88351959  1
  Bi  Bi44  1  0.00915359  0.75482174  0.13296309  1
  Bi  Bi45  1  0.00477619  0.73982255  0.38296884  1
  Bi  Bi46  1  -0.00958261  0.74439065  0.63289819  1
  Bi  Bi47  1  -0.00562843  0.75910272  0.88287172  1
  Bi  Bi48  1  0.75267045  0.51186246  0.13344743  1
  Bi  Bi49  1  0.75299986  0.49138008  0.38342459  1
  Bi  Bi50  1  0.74748759  0.48784637  0.63356117  1
  Bi  Bi51  1  0.74634567  0.50768561  0.88320136  1
  Bi  Bi52  1  0.50040202  0.75916109  0.13414649  1
  Bi  Bi53  1  0.50998327  0.74851926  0.38430730  1
  Bi  Bi54  1  0.49859735  0.73935488  0.63398071  1
  Bi  Bi55  1  0.48925225  0.75031054  0.88391340  1
  Bi  Bi56  1  0.25206905  0.01145507  0.13358311  1
  Bi  Bi57  1  0.25304564  0.99110598  0.38307999  1
  Bi  Bi58  1  0.24693676  0.98760389  0.63334136  1
  Bi  Bi59  1  0.24595719  0.00717537  0.88351178  1
  Bi  Bi60  1  0.75771108  0.00267777  0.13314335  1
  Bi  Bi61  1  0.76183719  -0.00370757  0.38352692  1
  Bi  Bi62  1  0.74186478  -0.00423245  0.63347617  1
  Bi  Bi63  1  0.73747799  0.00164827  0.88347677  1
  Cl  Cl64  1  -0.00370101  0.24106233  0.00116614  1
  Cl  Cl65  1  -0.01169375  0.25538248  0.25132822  1
  Cl  Cl66  1  0.00266842  0.25954145  0.50127759  1
  Cl  Cl67  1  0.01185649  0.24311391  0.75133176  1
  Cl  Cl68  1  0.49054426  0.24714633  0.00673471  1
  Cl  Cl69  1  0.49617357  0.25895159  0.25675115  1
  Cl  Cl70  1  0.50823230  0.25502445  0.50667993  1
  Cl  Cl71  1  0.50377684  0.24092908  0.75661459  1
  Cl  Cl72  1  0.23648326  0.49517048  0.00112768  1
  Cl  Cl73  1  0.24343855  0.50573695  0.25092155  1
  Cl  Cl74  1  0.26342179  0.50639381  0.50108458  1
  Cl  Cl75  1  0.25367883  0.49701202  0.75037426  1
  Cl  Cl76  1  -0.01238240  0.75003491  0.00031784  1
  Cl  Cl77  1  -0.00022392  0.76196591  0.25038377  1
  Cl  Cl78  1  0.01241206  0.75048515  0.50029899  1
  Cl  Cl79  1  0.00005582  0.73743931  0.75031271  1
  Cl  Cl80  1  0.74573064  0.49406853  0.00045444  1
  Cl  Cl81  1  0.74526111  0.51366427  0.25102148  1
  Cl  Cl82  1  0.75401858  0.50553426  0.50061838  1
  Cl  Cl83  1  0.75734352  0.48808181  0.75093398  1
  Cl  Cl84  1  0.49293797  0.73934911  0.00126390  1
  Cl  Cl85  1  0.49059470  0.75353284  0.25146473  1
  Cl  Cl86  1  0.50664575  0.76227135  0.50151161  1
  Cl  Cl87  1  0.51016206  0.74693097  0.75116789  1
  Cl  Cl88  1  0.24570233  0.99303047  0.00079608  1
  Cl  Cl89  1  0.24339628  0.01346720  0.25110057  1
  Cl  Cl90  1  0.25440856  0.00482107  0.50041441  1
  Cl  Cl91  1  0.25484796  -0.01222258  0.75096471  1
  Cl  Cl92  1  0.73719681  0.99221146  0.00093305  1
  Cl  Cl93  1  0.74538037  0.00425459  0.25047383  1
  Cl  Cl94  1  0.76359990  0.00463583  0.50109927  1
  Cl  Cl95  1  0.75574064  0.99664406  0.75075935  1
  Cl  Cl96  1  0.12328380  0.11617612  0.11946466  1
  Cl  Cl97  1  0.12927006  0.13341802  0.37319025  1
  Cl  Cl98  1  0.12772409  0.13467523  0.61984811  1
  Cl  Cl99  1  0.12901645  0.12438570  0.87083856  1
  Cl  Cl100  1  0.61319965  0.12312273  0.12199944  1
  Cl  Cl101  1  0.62180752  0.12252538  0.36718882  1
  Cl  Cl102  1  0.63681009  0.12526367  0.62455954  1
  Cl  Cl103  1  0.61783879  0.11625921  0.87488647  1
  Cl  Cl104  1  0.36428762  0.37519148  0.12557521  1
  Cl  Cl105  1  0.38285073  0.38424321  0.37384245  1
  Cl  Cl106  1  0.38776183  0.37685826  0.62374784  1
  Cl  Cl107  1  0.37952418  0.37863393  0.86675810  1
  Cl  Cl108  1  0.11335907  0.62455183  0.12177778  1
  Cl  Cl109  1  0.12260363  0.62407441  0.36895302  1
  Cl  Cl110  1  0.13584454  0.62465287  0.62121203  1
  Cl  Cl111  1  0.11826632  0.61684965  0.87047389  1
  Cl  Cl112  1  0.87198373  0.36501829  0.12046011  1
  Cl  Cl113  1  0.87083081  0.37525188  0.37023071  1
  Cl  Cl114  1  0.87628617  0.38318257  0.61984217  1
  Cl  Cl115  1  0.87258903  0.36781552  0.87256015  1
  Cl  Cl116  1  0.62314696  0.61582086  0.11976416  1
  Cl  Cl117  1  0.63077113  0.63506620  0.37300450  1
  Cl  Cl118  1  0.62837091  0.63554402  0.62118779  1
  Cl  Cl119  1  0.62818430  0.62351246  0.87003065  1
  Cl  Cl120  1  0.37195049  0.86474551  0.12145360  1
  Cl  Cl121  1  0.37258539  0.87680547  0.36955027  1
  Cl  Cl122  1  0.37720819  0.88459880  0.62048424  1
  Cl  Cl123  1  0.37250973  0.86775055  0.87153279  1
  Cl  Cl124  1  0.86507828  0.87541484  0.12134709  1
  Cl  Cl125  1  0.88203371  0.88301351  0.37007751  1
  Cl  Cl126  1  0.88728867  0.87546924  0.62263806  1
  Cl  Cl127  1  0.87839631  0.87657327  0.86814756  1
  Cl  Cl128  1  0.87278113  0.12145650  0.11940934  1
  Cl  Cl129  1  0.86495035  0.12649744  0.37030868  1
  Cl  Cl130  1  0.88371040  0.11963283  0.62242812  1
  Cl  Cl131  1  0.88408565  0.12188621  0.87125234  1
  Cl  Cl132  1  0.36552632  0.13202513  0.12429566  1
  Cl  Cl133  1  0.37235655  0.13677951  0.37232284  1
  Cl  Cl134  1  0.37094581  0.12935760  0.61663070  1
  Cl  Cl135  1  0.37408164  0.11412222  0.87520650  1
  Cl  Cl136  1  0.11582130  0.37856070  0.12269646  1
  Cl  Cl137  1  0.11355669  0.37799676  0.37125688  1
  Cl  Cl138  1  0.12532486  0.37778885  0.61950294  1
  Cl  Cl139  1  0.13408832  0.37235843  0.87007111  1
  Cl  Cl140  1  0.86668463  0.63122757  0.11983712  1
  Cl  Cl141  1  0.87408764  0.63607004  0.37273548  1
  Cl  Cl142  1  0.87329323  0.62808076  0.61806769  1
  Cl  Cl143  1  0.87414829  0.61456919  0.87195339  1
  Cl  Cl144  1  0.62660276  0.37163703  0.11739275  1
  Cl  Cl145  1  0.62382046  0.38573448  0.37480948  1
  Cl  Cl146  1  0.63307650  0.36798077  0.62496931  1
  Cl  Cl147  1  0.62689736  0.36205664  0.87249169  1
  Cl  Cl148  1  0.37309199  0.62117386  0.11995511  1
  Cl  Cl149  1  0.36571754  0.62630390  0.37005334  1
  Cl  Cl150  1  0.38275464  0.62058662  0.62326927  1
  Cl  Cl151  1  0.38317135  0.62266996  0.86995410  1
  Cl  Cl152  1  0.12530177  0.87212229  0.11877703  1
  Cl  Cl153  1  0.12509553  0.88456596  0.37138402  1
  Cl  Cl154  1  0.13287423  0.86799796  0.62034740  1
  Cl  Cl155  1  0.12528430  0.86256398  0.87181173  1
  Cl  Cl156  1  0.61698392  0.87707227  0.12300160  1
  Cl  Cl157  1  0.61424944  0.87777804  0.37020216  1
  Cl  Cl158  1  0.62443406  0.87914338  0.62073493  1
  Cl  Cl159  1  0.63285175  0.87296535  0.86936317  1
