# generated using pymatgen
data_CaInBr3
_symmetry_space_group_name_H-M   'P 1'
_cell_length_a   16.09363013
_cell_length_b   16.09363013
_cell_length_c   22.75983000
_cell_angle_alpha   90.00000000
_cell_angle_beta   90.00000000
_cell_angle_gamma   90.00000000
_symmetry_Int_Tables_number   1
_chemical_formula_structural   CaInBr3
_chemical_formula_sum   'Ca32 In32 Br96'
_cell_volume   5894.90819450
_cell_formula_units_Z   32
loop_
 _symmetry_equiv_pos_site_id
 _symmetry_equiv_pos_as_xyz
  1  'x, y, z'
loop_
 _atom_site_type_symbol
 _atom_site_label
 _atom_site_symmetry_multiplicity
 _atom_site_fract_x
 _atom_site_fract_y
 _atom_site_fract_z
 _atom_site_occupancy
  Br  Br0  1  0.15699901  0.09367354  0.98593649  1
  Br  Br1  1  0.10734724  0.13967072  0.28564851  1
  Br  Br2  1  0.09617029  0.15669211  0.48776842  1
  Br  Br3  1  0.11028015  0.13959418  0.77554003  1
  Br  Br4  1  0.64413375  0.11092351  0.97402682  1
  Br  Br5  1  0.59408043  0.15690152  0.24641671  1
  Br  Br6  1  0.58594390  0.16283649  0.48853675  1
  Br  Br7  1  0.58572275  0.16604388  0.76339908  1
  Br  Br8  1  0.36581959  0.38453006  0.02800676  1
  Br  Br9  1  0.38910809  0.35728934  0.22706330  1
  Br  Br10  1  0.39485016  0.36064522  0.52541908  1
  Br  Br11  1  0.38193116  0.36965126  0.71893904  1
  Br  Br12  1  0.13206975  0.61157642  0.97403770  1
  Br  Br13  1  0.09387156  0.65232178  0.25801108  1
  Br  Br14  1  0.09130609  0.66206746  0.49563523  1
  Br  Br15  1  0.10696186  0.63744210  0.78009010  1
  Br  Br16  1  0.85860455  0.39061646  0.03557834  1
  Br  Br17  1  0.90866883  0.33828693  0.23927194  1
  Br  Br18  1  0.89529107  0.35389079  0.50096817  1
  Br  Br19  1  0.89969951  0.34343829  0.73231633  1
  Br  Br20  1  0.64795366  0.60152272  0.98044664  1
  Br  Br21  1  0.59612529  0.65411969  0.26591458  1
  Br  Br22  1  0.60607330  0.64888437  0.46877188  1
  Br  Br23  1  0.59622925  0.65552464  0.76741907  1
  Br  Br24  1  0.36756151  0.88153366  -0.00003626  1
  Br  Br25  1  0.39279636  0.85727710  0.25230841  1
  Br  Br26  1  0.40895711  0.84444636  0.50711562  1
  Br  Br27  1  0.39439666  0.85861235  0.74292999  1
  Br  Br28  1  0.84537231  0.90642924  0.01575572  1
  Br  Br29  1  0.89309878  0.85721984  0.22771600  1
  Br  Br30  1  0.89095483  0.86191293  0.52180659  1
  Br  Br31  1  0.88882975  0.85960029  0.71918346  1
  Br  Br32  1  0.90978929  0.15802665  0.97931193  1
  Br  Br33  1  0.85267760  0.10137315  0.27703874  1
  Br  Br34  1  0.85173709  0.10863253  0.47057849  1
  Br  Br35  1  0.83707319  0.09474783  0.76586939  1
  Br  Br36  1  0.40078303  0.14360957  0.02410354  1
  Br  Br37  1  0.34797782  0.09745785  0.23107425  1
  Br  Br38  1  0.34903946  0.10622762  0.52951758  1
  Br  Br39  1  0.34793819  0.10722159  0.72645477  1
  Br  Br40  1  0.10652327  0.35486253  0.97714081  1
  Br  Br41  1  0.15241085  0.40223119  0.26902342  1
  Br  Br42  1  0.15465550  0.40667155  0.48265885  1
  Br  Br43  1  0.13483371  0.38927922  0.78394728  1
  Br  Br44  1  0.89378188  0.64727733  0.01785388  1
  Br  Br45  1  0.85616043  0.60471107  0.21507416  1
  Br  Br46  1  0.84434032  0.59914655  0.51887663  1
  Br  Br47  1  0.84389633  0.59649963  0.73243498  1
  Br  Br48  1  0.61438906  0.36249439  0.02594486  1
  Br  Br49  1  0.64754382  0.39741604  0.21721452  1
  Br  Br50  1  0.65533723  0.41099194  0.51484633  1
  Br  Br51  1  0.65368158  0.40929471  0.72994820  1
  Br  Br52  1  0.38009371  0.63280180  0.96518753  1
  Br  Br53  1  0.34945251  0.59514586  0.26464653  1
  Br  Br54  1  0.34587510  0.59687338  0.48198818  1
  Br  Br55  1  0.35843771  0.61684206  0.77313158  1
  Br  Br56  1  0.09376004  0.84647714  0.01855438  1
  Br  Br57  1  0.15362899  0.90186445  0.23102858  1
  Br  Br58  1  0.14375749  0.89949136  0.52988604  1
  Br  Br59  1  0.13514245  0.89486840  0.72236088  1
  Br  Br60  1  0.61221473  0.86148274  0.96111812  1
  Br  Br61  1  0.64967837  0.89615145  0.27511886  1
  Br  Br62  1  0.64225028  0.89835486  0.47060158  1
  Br  Br63  1  0.65012207  0.90684152  0.76571319  1
  Br  Br64  1  0.98134236  0.04026563  0.12701531  1
  Br  Br65  1  0.00510641  0.95330644  0.37646602  1
  Br  Br66  1  0.98910988  0.05094127  0.62600693  1
  Br  Br67  1  -0.00873135  0.95693827  0.87560209  1
  Br  Br68  1  0.51963456  0.96811627  0.12517375  1
  Br  Br69  1  0.46501041  0.01935515  0.37507526  1
  Br  Br70  1  0.54227204  0.01263781  0.62534548  1
  Br  Br71  1  0.45855839  0.02216655  0.87482942  1
  Br  Br72  1  0.20448138  0.26417417  0.12771023  1
  Br  Br73  1  0.29894565  0.25174183  0.37583356  1
  Br  Br74  1  0.20157054  0.25971880  0.62652573  1
  Br  Br75  1  0.29688902  0.23470447  0.87620646  1
  Br  Br76  1  0.04452116  0.50692095  0.12462344  1
  Br  Br77  1  0.96111812  0.52288390  0.37421266  1
  Br  Br78  1  0.01719973  0.48822962  0.62562438  1
  Br  Br79  1  0.94503459  0.48250331  0.87681807  1
  Br  Br80  1  0.77239614  0.19788527  0.12208784  1
  Br  Br81  1  0.74070939  0.28667679  0.37016055  1
  Br  Br82  1  0.73332214  0.22142051  0.62311194  1
  Br  Br83  1  0.74555719  0.29780799  0.87497413  1
  Br  Br84  1  0.50597245  0.54431999  0.12098959  1
  Br  Br85  1  0.50066702  0.45197009  0.37237834  1
  Br  Br86  1  0.48614934  0.54698644  0.62241896  1
  Br  Br87  1  0.51510008  0.45046143  0.87145695  1
  Br  Br88  1  0.27041032  0.73667937  0.12571691  1
  Br  Br89  1  0.22692436  0.78551023  0.37651366  1
  Br  Br90  1  0.24330990  0.71162607  0.62582585  1
  Br  Br91  1  0.23561867  0.79364666  0.87467320  1
  Br  Br92  1  0.70608887  0.76131221  0.12354949  1
  Br  Br93  1  0.79527749  0.74310164  0.37483510  1
  Br  Br94  1  0.70214208  0.76810338  0.62497327  1
  Br  Br95  1  0.79846905  0.76312786  0.87300882  1
  Ca  Ca96  1  0.00222883  0.00225919  0.00003611  1
  Ca  Ca97  1  0.00344914  0.00074223  0.25168608  1
  Ca  Ca98  1  0.99817137  0.00483751  0.50043366  1
  Ca  Ca99  1  0.99337240  0.00234796  0.75192107  1
  Ca  Ca100  1  0.50643704  -0.00192618  0.99944399  1
  Ca  Ca101  1  0.50621778  0.00212830  0.25041204  1
  Ca  Ca102  1  0.49420712  0.00445861  0.50153515  1
  Ca  Ca103  1  0.49738178  0.00735422  0.75007629  1
  Ca  Ca104  1  0.24993336  0.24668008  0.00260514  1
  Ca  Ca105  1  0.24455525  0.24566670  0.25183320  1
  Ca  Ca106  1  0.24991207  0.25298374  0.49995156  1
  Ca  Ca107  1  0.25072901  0.25686529  0.75160772  1
  Ca  Ca108  1  -0.00389387  0.49710780  -0.00023774  1
  Ca  Ca109  1  0.99639436  0.49558333  0.24988009  1
  Ca  Ca110  1  0.00343575  0.50354185  0.49858517  1
  Ca  Ca111  1  0.99506714  0.50016783  0.75278433  1
  Ca  Ca112  1  0.75518544  0.24955518  -0.00155624  1
  Ca  Ca113  1  0.74882502  0.25177137  0.24365853  1
  Ca  Ca114  1  0.74323022  0.25172928  0.49671953  1
  Ca  Ca115  1  0.74551971  0.25103122  0.75073860  1
  Ca  Ca116  1  0.49749870  0.50103305  0.99381322  1
  Ca  Ca117  1  0.50359049  0.49955245  0.24779096  1
  Ca  Ca118  1  0.50180832  0.50376667  0.49633247  1
  Ca  Ca119  1  0.49706135  0.50118975  0.74872231  1
  Ca  Ca120  1  0.24569638  0.74805795  0.00003596  1
  Ca  Ca121  1  0.24866623  0.74355747  0.25306697  1
  Ca  Ca122  1  0.25247398  0.75243394  0.50087536  1
  Ca  Ca123  1  0.24290950  0.75414698  0.74936101  1
  Ca  Ca124  1  0.74735713  0.75101393  0.99698728  1
  Ca  Ca125  1  0.75082188  0.74558823  0.24924368  1
  Ca  Ca126  1  0.74919854  0.75384639  0.50186967  1
  Ca  Ca127  1  0.74954573  0.74993664  0.74966426  1
  In  In128  1  0.96757652  0.24812580  0.10460099  1
  In  In129  1  0.94344744  0.23002175  0.36884044  1
  In  In130  1  0.00553442  0.25307356  0.60375696  1
  In  In131  1  -0.00071481  0.28781953  0.86576573  1
  In  In132  1  0.48872958  0.26980410  0.11534065  1
  In  In133  1  0.50835361  0.23361454  0.36580847  1
  In  In134  1  0.52460493  0.21287443  0.62380351  1
  In  In135  1  0.51013294  0.21828666  0.89306007  1
  In  In136  1  0.24890287  0.45854260  0.14838383  1
  In  In137  1  0.28937039  0.46389604  0.37355263  1
  In  In138  1  0.29258962  0.48679161  0.60491609  1
  In  In139  1  0.23515377  0.52953754  0.86382333  1
  In  In140  1  0.99208643  0.70489989  0.13656132  1
  In  In141  1  0.01463896  0.73561078  0.37635366  1
  In  In142  1  0.04299566  0.77914019  0.61402367  1
  In  In143  1  0.01953343  0.75581844  0.90321036  1
  In  In144  1  0.71494714  0.50787676  0.10410873  1
  In  In145  1  0.75184505  0.51273189  0.41278445  1
  In  In146  1  0.80452411  0.46120243  0.62968351  1
  In  In147  1  0.71613523  0.49515209  0.85170684  1
  In  In148  1  0.51086680  0.74123144  0.15231259  1
  In  In149  1  0.51899310  0.79526808  0.39028220  1
  In  In150  1  0.50750779  0.74233668  0.65178777  1
  In  In151  1  0.44430824  0.78043976  0.87912846  1
  In  In152  1  0.30674156  0.94357631  0.13174840  1
  In  In153  1  0.25080705  0.99467926  0.33405819  1
  In  In154  1  0.21143687  0.04761731  0.62782816  1
  In  In155  1  0.24294071  0.04113901  0.86197484  1
  In  In156  1  0.78790947  0.98110773  0.14092691  1
  In  In157  1  0.79413489  0.95449552  0.37612565  1
  In  In158  1  0.76243834  0.98117807  0.65726159  1
  In  In159  1  0.76088770  0.96182566  0.88712848  1
