# generated using pymatgen
data_CaInCl3
_symmetry_space_group_name_H-M   'P 1'
_cell_length_a   15.24879309
_cell_length_b   15.24879309
_cell_length_c   21.56505000
_cell_angle_alpha   90.00000000
_cell_angle_beta   90.00000000
_cell_angle_gamma   90.00000000
_symmetry_Int_Tables_number   1
_chemical_formula_structural   CaInCl3
_chemical_formula_sum   'Ca32 In32 Cl96'
_cell_volume   5014.42814734
_cell_formula_units_Z   32
loop_
 _symmetry_equiv_pos_site_id
 _symmetry_equiv_pos_as_xyz
  1  'x, y, z'
loop_
 _atom_site_type_symbol
 _atom_site_label
 _atom_site_symmetry_multiplicity
 _atom_site_fract_x
 _atom_site_fract_y
 _atom_site_fract_z
 _atom_site_occupancy
  Ca  Ca0  1  0.00210436  0.00473903  0.00090946  1
  Ca  Ca1  1  0.00324961  0.00197055  0.25231448  1
  Ca  Ca2  1  0.99929869  0.99839287  0.49937457  1
  Ca  Ca3  1  0.99891602  0.99486066  0.74924822  1
  Ca  Ca4  1  0.49980154  0.00116156  0.00047381  1
  Ca  Ca5  1  0.50177406  0.00344324  0.25227557  1
  Ca  Ca6  1  0.49878959  0.99544662  0.50151574  1
  Ca  Ca7  1  0.50010652  0.99438309  0.74982063  1
  Ca  Ca8  1  0.25161099  0.25058173  0.99906713  1
  Ca  Ca9  1  0.25177601  0.25360711  0.25077099  1
  Ca  Ca10  1  0.25063460  0.24692245  0.50115460  1
  Ca  Ca11  1  0.24846322  0.24743889  0.75081001  1
  Ca  Ca12  1  0.00236008  0.50333516  0.00152496  1
  Ca  Ca13  1  0.00220765  0.50270586  0.24973287  1
  Ca  Ca14  1  -0.00026967  0.49264995  0.50102691  1
  Ca  Ca15  1  -0.00018096  0.49430530  0.74978890  1
  Ca  Ca16  1  0.74905903  0.25451613  0.00008823  1
  Ca  Ca17  1  0.74848688  0.25565620  0.24923403  1
  Ca  Ca18  1  0.74988800  0.24615321  0.50159642  1
  Ca  Ca19  1  0.74811675  0.24563229  0.75067363  1
  Ca  Ca20  1  0.50102341  0.50219420  0.99829469  1
  Ca  Ca21  1  0.50006215  0.50234560  0.25027542  1
  Ca  Ca22  1  0.50004418  0.49416662  0.50139725  1
  Ca  Ca23  1  0.49803995  0.49365471  0.74917128  1
  Ca  Ca24  1  0.25190390  0.75621712  0.00160011  1
  Ca  Ca25  1  0.24909417  0.75312883  0.25185436  1
  Ca  Ca26  1  0.24889534  0.74575994  0.50202950  1
  Ca  Ca27  1  0.24870552  0.74454514  0.74815854  1
  Ca  Ca28  1  0.74898416  0.75509017  0.99928996  1
  Ca  Ca29  1  0.75108835  0.75576448  0.24994085  1
  Ca  Ca30  1  0.74900254  0.74607912  0.50000680  1
  Ca  Ca31  1  0.75042540  0.74443014  0.74981834  1
  Cl  Cl32  1  0.10006865  0.15306497  0.99555857  1
  Cl  Cl33  1  0.10162683  0.15348582  0.25509066  1
  Cl  Cl34  1  0.15150267  0.09682047  0.49176256  1
  Cl  Cl35  1  0.15021686  0.09330356  0.75854918  1
  Cl  Cl36  1  0.61162047  0.14166045  0.97447788  1
  Cl  Cl37  1  0.61204054  0.14357099  0.27589640  1
  Cl  Cl38  1  0.64152103  0.10212682  0.47694779  1
  Cl  Cl39  1  0.63995574  0.10282896  0.77544516  1
  Cl  Cl40  1  0.38721606  0.36738253  0.02517586  1
  Cl  Cl41  1  0.38524914  0.37044183  0.22323976  1
  Cl  Cl42  1  0.34831345  0.39824130  0.51733704  1
  Cl  Cl43  1  0.35121911  0.39248056  0.72790898  1
  Cl  Cl44  1  0.11225211  0.64252566  0.98012159  1
  Cl  Cl45  1  0.10315681  0.64938975  0.26769995  1
  Cl  Cl46  1  0.13612294  0.60802902  0.47449208  1
  Cl  Cl47  1  0.15353203  0.59017322  0.76304637  1
  Cl  Cl48  1  0.90098052  0.35201926  0.01445381  1
  Cl  Cl49  1  0.90219339  0.35040633  0.23950059  1
  Cl  Cl50  1  0.86083660  0.38361875  0.52739400  1
  Cl  Cl51  1  0.85939868  0.38265162  0.72018340  1
  Cl  Cl52  1  0.61260186  0.64176384  0.97251962  1
  Cl  Cl53  1  0.60650807  0.64818375  0.26828541  1
  Cl  Cl54  1  0.64189616  0.60214358  0.47810768  1
  Cl  Cl55  1  0.63836068  0.60391929  0.77500079  1
  Cl  Cl56  1  0.38745013  0.86741417  0.03016042  1
  Cl  Cl57  1  0.38820095  0.86799437  0.22465920  1
  Cl  Cl58  1  0.34821049  0.89654825  0.51828146  1
  Cl  Cl59  1  0.34817954  0.89563318  0.73627262  1
  Cl  Cl60  1  0.89974528  0.85299752  0.01392616  1
  Cl  Cl61  1  0.89939174  0.85490666  0.23840256  1
  Cl  Cl62  1  0.86350345  0.88124313  0.52458400  1
  Cl  Cl63  1  0.86388003  0.87935057  0.72159475  1
  Cl  Cl64  1  0.85066988  0.10229730  0.01361289  1
  Cl  Cl65  1  0.85241165  0.10456554  0.23602250  1
  Cl  Cl66  1  0.88435839  0.13061639  0.53120314  1
  Cl  Cl67  1  0.88584066  0.13094524  0.72283122  1
  Cl  Cl68  1  0.36642774  0.11873416  0.02976560  1
  Cl  Cl69  1  0.36575676  0.11928156  0.22352818  1
  Cl  Cl70  1  0.40160888  0.14798123  0.51766949  1
  Cl  Cl71  1  0.39989103  0.14546893  0.73435948  1
  Cl  Cl72  1  0.14209614  0.39319979  0.97527866  1
  Cl  Cl73  1  0.13810160  0.39092087  0.27900395  1
  Cl  Cl74  1  0.11126987  0.35632051  0.47182137  1
  Cl  Cl75  1  0.09345196  0.33941337  0.76294667  1
  Cl  Cl76  1  0.85231131  0.60294962  0.01293246  1
  Cl  Cl77  1  0.85015598  0.60125040  0.23523189  1
  Cl  Cl78  1  0.88883776  0.63304259  0.52566246  1
  Cl  Cl79  1  0.88655448  0.62928473  0.72157995  1
  Cl  Cl80  1  0.64974485  0.40206377  0.98963730  1
  Cl  Cl81  1  0.65065356  0.40467357  0.25552500  1
  Cl  Cl82  1  0.59995828  0.34523558  0.48859637  1
  Cl  Cl83  1  0.59726112  0.34409921  0.76176424  1
  Cl  Cl84  1  0.35597916  0.61052117  0.01571122  1
  Cl  Cl85  1  0.36574729  0.62130474  0.22453595  1
  Cl  Cl86  1  0.39997929  0.64645783  0.51462605  1
  Cl  Cl87  1  0.39773083  0.64367586  0.73041538  1
  Cl  Cl88  1  0.13901430  0.89198047  0.97454228  1
  Cl  Cl89  1  0.15003213  0.90144455  0.26968386  1
  Cl  Cl90  1  0.10859042  0.85564126  0.47420604  1
  Cl  Cl91  1  0.10785644  0.85174980  0.77329373  1
  Cl  Cl92  1  0.64800918  0.90084403  0.98779043  1
  Cl  Cl93  1  0.64838087  0.90071583  0.26052080  1
  Cl  Cl94  1  0.59741852  0.84405226  0.48991136  1
  Cl  Cl95  1  0.60058977  0.84502833  0.76211642  1
  Cl  Cl96  1  0.03356056  0.97954192  0.12582264  1
  Cl  Cl97  1  0.96667616  0.02301042  0.37615859  1
  Cl  Cl98  1  0.04293477  0.97732166  0.62444994  1
  Cl  Cl99  1  0.96404884  -0.00938054  0.87479770  1
  Cl  Cl100  1  0.54013988  0.02297490  0.12607556  1
  Cl  Cl101  1  0.45982671  0.00658525  0.37638722  1
  Cl  Cl102  1  0.53806976  0.98349239  0.62563203  1
  Cl  Cl103  1  0.45886901  0.00626533  0.87536013  1
  Cl  Cl104  1  0.21351094  0.27627815  0.12520679  1
  Cl  Cl105  1  0.29025951  0.25601070  0.37569094  1
  Cl  Cl106  1  0.21211337  0.23608206  0.62522606  1
  Cl  Cl107  1  0.28373662  0.23704605  0.87500724  1
  Cl  Cl108  1  0.03853043  0.48227322  0.12564294  1
  Cl  Cl109  1  0.95788739  0.50946503  0.37592530  1
  Cl  Cl110  1  0.04652981  0.48006908  0.62468127  1
  Cl  Cl111  1  0.96419890  0.48712144  0.87493728  1
  Cl  Cl112  1  0.71482487  0.22990254  0.12478799  1
  Cl  Cl113  1  0.78733623  0.24094263  0.37559007  1
  Cl  Cl114  1  0.70292602  0.22678410  0.62608586  1
  Cl  Cl115  1  0.79092069  0.24282965  0.87478148  1
  Cl  Cl116  1  0.53405665  0.52665534  0.12368756  1
  Cl  Cl117  1  0.46501991  0.50649242  0.37520724  1
  Cl  Cl118  1  0.54061471  0.48562634  0.62532158  1
  Cl  Cl119  1  0.45961628  0.50597626  0.87401108  1
  Cl  Cl120  1  0.20996565  0.76978014  0.12605127  1
  Cl  Cl121  1  0.29031483  0.76018905  0.37638287  1
  Cl  Cl122  1  0.20682664  0.73134051  0.62480265  1
  Cl  Cl123  1  0.28629041  0.74443985  0.87469082  1
  Cl  Cl124  1  0.71691240  0.73292075  0.12445154  1
  Cl  Cl125  1  0.78668380  0.73501370  0.37528760  1
  Cl  Cl126  1  0.70719160  0.72917369  0.62481535  1
  Cl  Cl127  1  0.78983492  0.74120227  0.87431423  1
  In  In128  1  0.01236099  0.26869986  0.12400023  1
  In  In129  1  0.00002648  0.25961324  0.35239659  1
  In  In130  1  0.99246335  0.27665062  0.63755690  1
  In  In131  1  0.00298345  0.28300659  0.89386004  1
  In  In132  1  0.48148813  0.21943270  0.12502031  1
  In  In133  1  0.50016022  0.21470188  0.39822119  1
  In  In134  1  0.50618913  0.28153149  0.62978561  1
  In  In135  1  0.49067169  0.21318231  0.85571781  1
  In  In136  1  0.27386160  0.47191782  0.12240372  1
  In  In137  1  0.25017506  0.46299653  0.39449190  1
  In  In138  1  0.24876527  0.52374830  0.64017747  1
  In  In139  1  0.25055598  0.53650559  0.89421959  1
  In  In140  1  0.00220611  0.78093970  0.12994946  1
  In  In141  1  0.00628497  0.71494476  0.38557797  1
  In  In142  1  0.98111468  0.77707245  0.62451494  1
  In  In143  1  0.00044960  0.78617539  0.89296741  1
  In  In144  1  0.73867790  0.52471176  0.12519246  1
  In  In145  1  0.74954200  0.53224899  0.35652721  1
  In  In146  1  0.76795421  0.52283181  0.62207239  1
  In  In147  1  0.75116413  0.53118763  0.89481032  1
  In  In148  1  0.49462984  0.72823444  0.14211143  1
  In  In149  1  0.49656381  0.71321919  0.39625916  1
  In  In150  1  0.51331587  0.78064683  0.62213472  1
  In  In151  1  0.50273878  0.71470949  0.85267039  1
  In  In152  1  0.26806176  0.96898632  0.13104261  1
  In  In153  1  0.24907162  0.96343913  0.39421984  1
  In  In154  1  0.23810528  0.03287293  0.62172146  1
  In  In155  1  0.25032872  0.97432894  0.84966143  1
  In  In156  1  0.74367550  0.02427417  0.12660452  1
  In  In157  1  0.75593579  0.03535877  0.35648463  1
  In  In158  1  0.76690884  0.02896603  0.62349702  1
  In  In159  1  0.74822185  0.03270045  0.89475757  1
