# generated using pymatgen
data_CaInF3
_symmetry_space_group_name_H-M   'P 1'
_cell_length_a   12.72861785
_cell_length_b   12.72861785
_cell_length_c   18.00098400
_cell_angle_alpha   90.00000000
_cell_angle_beta   90.00000000
_cell_angle_gamma   90.00000000
_symmetry_Int_Tables_number   1
_chemical_formula_structural   CaInF3
_chemical_formula_sum   'Ca32 In32 F96'
_cell_volume   2916.47825014
_cell_formula_units_Z   32
loop_
 _symmetry_equiv_pos_site_id
 _symmetry_equiv_pos_as_xyz
  1  'x, y, z'
loop_
 _atom_site_type_symbol
 _atom_site_label
 _atom_site_symmetry_multiplicity
 _atom_site_fract_x
 _atom_site_fract_y
 _atom_site_fract_z
 _atom_site_occupancy
  Ca  Ca0  1  0.00189594  0.00136323  0.99785943  1
  Ca  Ca1  1  0.99995892  0.99764750  0.24904845  1
  Ca  Ca2  1  0.99995080  0.99932606  0.49555278  1
  Ca  Ca3  1  0.00375978  0.99541671  0.75143969  1
  Ca  Ca4  1  0.49785928  0.99739700  0.99908051  1
  Ca  Ca5  1  0.50197666  0.00229790  0.24919104  1
  Ca  Ca6  1  0.49890218  0.00036262  0.49920728  1
  Ca  Ca7  1  0.50102687  0.99856953  0.74995179  1
  Ca  Ca8  1  0.24836151  0.24805160  0.99920012  1
  Ca  Ca9  1  0.25060488  0.24726550  0.25001040  1
  Ca  Ca10  1  0.24910882  0.24836113  0.50116167  1
  Ca  Ca11  1  0.25044861  0.24862137  0.74743237  1
  Ca  Ca12  1  0.00383169  0.49670142  0.00041178  1
  Ca  Ca13  1  0.00023276  0.49785873  0.24743814  1
  Ca  Ca14  1  0.99322644  0.49802631  0.49992230  1
  Ca  Ca15  1  0.00216585  0.49740981  0.74673035  1
  Ca  Ca16  1  0.75261080  0.25016926  0.99677535  1
  Ca  Ca17  1  0.74828296  0.24960466  0.24968308  1
  Ca  Ca18  1  0.75155940  0.25164572  0.49926366  1
  Ca  Ca19  1  0.75009208  0.25341477  0.74805133  1
  Ca  Ca20  1  0.50035125  0.49637229  0.99757125  1
  Ca  Ca21  1  0.49994576  0.49643978  0.24914383  1
  Ca  Ca22  1  0.49684262  0.50576143  0.49967389  1
  Ca  Ca23  1  0.49552962  0.50107998  0.74990851  1
  Ca  Ca24  1  0.24816753  0.74919895  0.00061740  1
  Ca  Ca25  1  0.24819598  0.74528099  0.24855697  1
  Ca  Ca26  1  0.25070982  0.75142711  0.49796958  1
  Ca  Ca27  1  0.24786521  0.74683076  0.74890529  1
  Ca  Ca28  1  0.74673326  0.75049345  0.99679002  1
  Ca  Ca29  1  0.74982205  0.75351616  0.24901662  1
  Ca  Ca30  1  0.74910564  0.75231942  0.49746272  1
  Ca  Ca31  1  0.75119807  0.75289927  0.75055418  1
  F  F32  1  0.11577811  0.13503699  0.97638972  1
  F  F33  1  0.09980920  0.15140460  0.24757165  1
  F  F34  1  0.10210025  0.14624501  0.50687688  1
  F  F35  1  0.11353941  0.13613437  0.76978344  1
  F  F36  1  0.61964441  0.13407386  0.01769329  1
  F  F37  1  0.63819305  0.11278202  0.27223613  1
  F  F38  1  0.63108556  0.11753558  0.47282513  1
  F  F39  1  0.62555092  0.12402318  0.76018869  1
  F  F40  1  0.36525440  0.38548009  0.01896792  1
  F  F41  1  0.36531283  0.38458151  0.23268396  1
  F  F42  1  0.38118780  0.36964922  0.48977639  1
  F  F43  1  0.35650669  0.39219575  0.75271213  1
  F  F44  1  0.11527786  0.63570361  0.98008217  1
  F  F45  1  0.10622273  0.64398635  0.25982354  1
  F  F46  1  0.12368132  0.62709392  0.52440110  1
  F  F47  1  0.13339850  0.61524484  0.74881701  1
  F  F48  1  0.86193273  0.39012193  0.00511782  1
  F  F49  1  0.89854396  0.35088342  0.25196045  1
  F  F50  1  0.88632206  0.36162550  0.49759099  1
  F  F51  1  0.86292796  0.38667684  0.76116707  1
  F  F52  1  0.61545568  0.63461509  0.01430375  1
  F  F53  1  0.63252130  0.61898670  0.26430742  1
  F  F54  1  0.64207897  0.60839226  0.50683423  1
  F  F55  1  0.64252852  0.60381751  0.74057754  1
  F  F56  1  0.36750176  0.88254298  0.99753062  1
  F  F57  1  0.37104156  0.87846866  0.26036910  1
  F  F58  1  0.35128459  0.89842977  0.50824408  1
  F  F59  1  0.35574498  0.89531531  0.74846147  1
  F  F60  1  0.87771264  0.87451944  0.01943662  1
  F  F61  1  0.89085863  0.86123462  0.24296966  1
  F  F62  1  0.86973127  0.88066218  0.52460318  1
  F  F63  1  0.86407830  0.88660130  0.73754934  1
  F  F64  1  0.85799916  0.10812875  0.01636691  1
  F  F65  1  0.87945810  0.12779803  0.22807232  1
  F  F66  1  0.86555087  0.11635672  0.51750926  1
  F  F67  1  0.86227559  0.11392310  0.74895583  1
  F  F68  1  0.39103323  0.14326992  0.01506577  1
  F  F69  1  0.36088188  0.11110362  0.25416720  1
  F  F70  1  0.39136585  0.14346409  0.49037007  1
  F  F71  1  0.39544679  0.14676782  0.75640639  1
  F  F72  1  0.13103219  0.38019275  0.97681988  1
  F  F73  1  0.14091752  0.39236887  0.26224292  1
  F  F74  1  0.14624851  0.39939992  0.49388398  1
  F  F75  1  0.12370116  0.37299080  0.77910038  1
  F  F76  1  0.89193356  0.64341337  0.99945732  1
  F  F77  1  0.87989874  0.62835216  0.26394995  1
  F  F78  1  0.89212143  0.64336194  0.51459809  1
  F  F79  1  0.86588648  0.61456307  0.75099961  1
  F  F80  1  0.63314992  0.38276878  0.01359591  1
  F  F81  1  0.64273186  0.38944815  0.26054696  1
  F  F82  1  0.60509793  0.35348035  0.49129930  1
  F  F83  1  0.60133002  0.35457918  0.74936533  1
  F  F84  1  0.39034604  0.64159438  0.00743190  1
  F  F85  1  0.39188390  0.64092734  0.25408521  1
  F  F86  1  0.36679399  0.62143722  0.50860584  1
  F  F87  1  0.39840336  0.65090301  0.75729830  1
  F  F88  1  0.12981816  0.88099871  0.97771338  1
  F  F89  1  0.15019584  0.90069594  0.24774141  1
  F  F90  1  0.10422225  0.85852795  0.50927416  1
  F  F91  1  0.13210805  0.88000957  0.77452073  1
  F  F92  1  0.64068043  0.89212387  0.01129003  1
  F  F93  1  0.60720191  0.85822085  0.25905614  1
  F  F94  1  0.61218611  0.86422135  0.51587170  1
  F  F95  1  0.60614594  0.85592448  0.73538055  1
  F  F96  1  0.03444558  0.00330097  0.12296016  1
  F  F97  1  0.98360426  0.03286065  0.37280832  1
  F  F98  1  0.99207988  0.01926020  0.62580444  1
  F  F99  1  0.96343787  0.01964064  0.87435972  1
  F  F100  1  0.50545446  0.02472007  0.12569033  1
  F  F101  1  0.47992352  0.97904105  0.37526360  1
  F  F102  1  0.47504862  0.98733644  0.62495476  1
  F  F103  1  0.49551402  0.02611223  0.87533272  1
  F  F104  1  0.23232901  0.27674221  0.12469398  1
  F  F105  1  0.24916866  0.27460775  0.37524330  1
  F  F106  1  0.21438794  0.25995543  0.62486169  1
  F  F107  1  0.27136614  0.26933458  0.87453596  1
  F  F108  1  0.99745348  0.50477881  0.12412268  1
  F  F109  1  0.01449647  0.52349750  0.37620628  1
  F  F110  1  0.02996991  0.47858931  0.62389425  1
  F  F111  1  0.97568333  0.52531742  0.87391598  1
  F  F112  1  0.75715197  0.27412353  0.12501068  1
  F  F113  1  0.78495779  0.21581836  0.37373449  1
  F  F114  1  0.71608053  0.25180799  0.62343458  1
  F  F115  1  0.75691539  0.21785632  0.87387518  1
  F  F116  1  0.49481734  0.52594393  0.12486190  1
  F  F117  1  0.52164014  0.50297810  0.37493257  1
  F  F118  1  0.52318254  0.47678266  0.62440978  1
  F  F119  1  0.49525114  0.52907972  0.87491115  1
  F  F120  1  0.24380332  0.77940905  0.12481089  1
  F  F121  1  0.25471400  0.77525707  0.37385744  1
  F  F122  1  0.24944862  0.78235888  0.62569602  1
  F  F123  1  0.27926925  0.76292994  0.87441773  1
  F  F124  1  0.77274838  0.74310859  0.12418137  1
  F  F125  1  0.75467429  0.73998200  0.37478166  1
  F  F126  1  0.72971149  0.72846655  0.62499168  1
  F  F127  1  0.75632878  0.72810175  0.87371237  1
  In  In128  1  0.98687685  0.23450464  0.14382990  1
  In  In129  1  0.99217133  0.23723070  0.36732847  1
  In  In130  1  0.01166181  0.22648997  0.61351055  1
  In  In131  1  0.01880201  0.23368474  0.87107312  1
  In  In132  1  0.50223663  0.21860675  0.10840050  1
  In  In133  1  0.48802048  0.25943310  0.40098001  1
  In  In134  1  0.52342115  0.27667278  0.62976087  1
  In  In135  1  0.49685236  0.22350438  0.85761547  1
  In  In136  1  0.26761665  0.46509889  0.12635880  1
  In  In137  1  0.23097168  0.47096324  0.37344737  1
  In  In138  1  0.22379141  0.50204680  0.60716167  1
  In  In139  1  0.24469810  0.46582410  0.86576496  1
  In  In140  1  0.96536039  0.74617274  0.11642697  1
  In  In141  1  0.98943441  0.72076950  0.35499633  1
  In  In142  1  0.00436004  0.75143182  0.60023201  1
  In  In143  1  0.99923780  0.72083700  0.88836997  1
  In  In144  1  0.75228791  0.47004788  0.10666029  1
  In  In145  1  0.71867907  0.51549835  0.36137686  1
  In  In146  1  0.73216786  0.53131344  0.62605415  1
  In  In147  1  0.77354963  0.51355449  0.85339101  1
  In  In148  1  0.49928291  0.71762752  0.10892677  1
  In  In149  1  0.49765173  0.75541913  0.34835974  1
  In  In150  1  0.52431417  0.76945530  0.62413116  1
  In  In151  1  0.47720369  0.72607518  0.87055159  1
  In  In152  1  0.23588084  0.97437720  0.13231844  1
  In  In153  1  0.27490362  0.97647865  0.36038485  1
  In  In154  1  0.27544881  0.97138517  0.62523503  1
  In  In155  1  0.24986588  0.96517227  0.87326429  1
  In  In156  1  0.74941491  0.99515907  0.10083246  1
  In  In157  1  0.73656206  0.02753326  0.37494693  1
  In  In158  1  0.78506166  0.00128329  0.62229958  1
  In  In159  1  0.76648535  0.02439405  0.85542722  1
