# generated using pymatgen
data_CdInBr3
_symmetry_space_group_name_H-M   'P 1'
_cell_length_a   15.64212972
_cell_length_b   15.64212972
_cell_length_c   22.12131100
_cell_angle_alpha   90.00000000
_cell_angle_beta   90.00000000
_cell_angle_gamma   90.00000000
_symmetry_Int_Tables_number   1
_chemical_formula_structural   CdInBr3
_chemical_formula_sum   'Cd32 In32 Br96'
_cell_volume   5412.55880782
_cell_formula_units_Z   32
loop_
 _symmetry_equiv_pos_site_id
 _symmetry_equiv_pos_as_xyz
  1  'x, y, z'
loop_
 _atom_site_type_symbol
 _atom_site_label
 _atom_site_symmetry_multiplicity
 _atom_site_fract_x
 _atom_site_fract_y
 _atom_site_fract_z
 _atom_site_occupancy
  Br  Br0  1  0.97686827  0.32384165  0.97742080  1
  Br  Br1  1  0.01550741  0.23118932  0.26073839  1
  Br  Br2  1  0.96631935  0.27541662  0.50047542  1
  Br  Br3  1  0.02777207  0.18648020  0.74698659  1
  Br  Br4  1  0.48838159  0.32371018  0.99413320  1
  Br  Br5  1  0.46038763  0.23128456  0.25771824  1
  Br  Br6  1  0.53197522  0.26158040  0.46632895  1
  Br  Br7  1  0.51634828  0.17429971  0.77037568  1
  Br  Br8  1  0.25501256  0.45252495  0.00220717  1
  Br  Br9  1  0.18160305  0.48832644  0.26000963  1
  Br  Br10  1  0.27918746  0.48963868  0.51181187  1
  Br  Br11  1  0.26866144  0.52100117  0.72710520  1
  Br  Br12  1  0.03544962  0.76457853  0.98131542  1
  Br  Br13  1  0.99525239  0.70247266  0.25658035  1
  Br  Br14  1  0.99043384  0.80481644  0.50198845  1
  Br  Br15  1  0.01952926  0.71132194  0.75571954  1
  Br  Br16  1  0.72269954  0.45392696  0.98134998  1
  Br  Br17  1  0.76519729  0.57231968  0.25829809  1
  Br  Br18  1  0.75425109  0.46099061  0.48814290  1
  Br  Br19  1  0.77264337  0.59012449  0.75986709  1
  Br  Br20  1  0.45755927  0.73770886  0.03099447  1
  Br  Br21  1  0.55152831  0.72066668  0.24679280  1
  Br  Br22  1  0.48338720  0.81509489  0.49816715  1
  Br  Br23  1  0.53358907  0.70076141  0.73847157  1
  Br  Br24  1  0.27530123  0.93651697  0.02185146  1
  Br  Br25  1  0.23465405  0.05383550  0.23776882  1
  Br  Br26  1  0.22888983  0.92806394  0.50869037  1
  Br  Br27  1  0.27324471  0.08429851  0.73636182  1
  Br  Br28  1  0.75026407  0.99405571  0.01134229  1
  Br  Br29  1  0.78569292  0.00394282  0.22037112  1
  Br  Br30  1  0.70713869  0.97815020  0.50484188  1
  Br  Br31  1  0.76766315  0.04907626  0.75207555  1
  Br  Br32  1  0.15952194  0.13233134  0.07728612  1
  Br  Br33  1  0.08746581  0.08713680  0.39183162  1
  Br  Br34  1  0.14436524  0.15555848  0.59253244  1
  Br  Br35  1  0.13000270  0.16142003  0.90640493  1
  Br  Br36  1  0.65399536  0.18974253  0.12852791  1
  Br  Br37  1  0.61269796  0.07623565  0.33863326  1
  Br  Br38  1  0.63523157  0.15803291  0.61455592  1
  Br  Br39  1  0.64086256  0.18408577  0.91442252  1
  Br  Br40  1  0.31908634  0.32692189  0.14160366  1
  Br  Br41  1  0.37095735  0.40134789  0.36928663  1
  Br  Br42  1  0.40137747  0.33559393  0.63261697  1
  Br  Br43  1  0.34153972  0.32133806  0.84631286  1
  Br  Br44  1  0.15706691  0.64374395  0.11107686  1
  Br  Br45  1  0.12498742  0.62085619  0.41447491  1
  Br  Br46  1  0.14992525  0.68732241  0.60964395  1
  Br  Br47  1  0.17340871  0.62322346  0.87712385  1
  Br  Br48  1  0.82548899  0.37540833  0.14090773  1
  Br  Br49  1  0.90846432  0.40702891  0.35605081  1
  Br  Br50  1  0.86367094  0.33576875  0.64507252  1
  Br  Br51  1  0.85288748  0.35297778  0.82810811  1
  Br  Br52  1  0.66113376  0.63504212  0.10195024  1
  Br  Br53  1  0.60340581  0.60414480  0.39882523  1
  Br  Br54  1  0.64920760  0.67350101  0.57981907  1
  Br  Br55  1  0.64368828  0.66115846  0.90113195  1
  Br  Br56  1  0.33448249  0.84709613  0.18887621  1
  Br  Br57  1  0.40082363  0.90365925  0.35617397  1
  Br  Br58  1  0.34767636  0.85806689  0.66418185  1
  Br  Br59  1  0.38245239  0.81597285  0.87411955  1
  Br  Br60  1  0.85946991  0.82766728  0.11017862  1
  Br  Br61  1  0.89128102  0.90054246  0.35473845  1
  Br  Br62  1  0.84112225  0.84618231  0.64823587  1
  Br  Br63  1  0.86011687  0.85503112  0.86835435  1
  Br  Br64  1  0.90899403  0.14694384  0.11018611  1
  Br  Br65  1  0.83370669  0.15593785  0.38563501  1
  Br  Br66  1  0.87863732  0.09371807  0.59717125  1
  Br  Br67  1  0.89373247  0.10259583  0.89500047  1
  Br  Br68  1  0.41700546  0.11468390  0.09365771  1
  Br  Br69  1  0.33527228  0.12597124  0.39241517  1
  Br  Br70  1  0.38552897  0.08505961  0.58304125  1
  Br  Br71  1  0.37824777  0.07265748  0.89817472  1
  Br  Br72  1  0.08143175  0.39767696  0.12369934  1
  Br  Br73  1  0.14623029  0.33785542  0.40685686  1
  Br  Br74  1  0.08701888  0.40538186  0.63104779  1
  Br  Br75  1  0.10865630  0.39410753  0.83189344  1
  Br  Br76  1  0.91433211  0.59047384  0.09734412  1
  Br  Br77  1  0.87247799  0.64445107  0.40494234  1
  Br  Br78  1  0.90602498  0.60239380  0.60810656  1
  Br  Br79  1  0.90637234  0.57356452  0.89566859  1
  Br  Br80  1  0.55348639  0.42138561  0.14672541  1
  Br  Br81  1  0.66624251  0.36577578  0.31151064  1
  Br  Br82  1  0.64617122  0.42843150  0.63979366  1
  Br  Br83  1  0.60704799  0.40748435  0.81727986  1
  Br  Br84  1  0.37278484  0.58539283  0.17069753  1
  Br  Br85  1  0.36733169  0.65262232  0.36338664  1
  Br  Br86  1  0.41335038  0.62542148  0.60005826  1
  Br  Br87  1  0.42036116  0.54093910  0.87577046  1
  Br  Br88  1  0.07719919  0.89152923  0.14284536  1
  Br  Br89  1  0.14193840  0.85821232  0.34227604  1
  Br  Br90  1  0.08787564  0.91916342  0.65453145  1
  Br  Br91  1  0.14345018  0.90069438  0.84391353  1
  Br  Br92  1  0.56494738  0.91387704  0.13473971  1
  Br  Br93  1  0.66159380  0.84168184  0.36873484  1
  Br  Br94  1  0.59495137  0.91089571  0.66118572  1
  Br  Br95  1  0.61675289  0.92556697  0.86922595  1
  Cd  Cd96  1  0.03719613  0.24561921  0.07784032  1
  Cd  Cd97  1  0.99567585  0.24615335  0.38019302  1
  Cd  Cd98  1  0.99385029  0.22772707  0.62707753  1
  Cd  Cd99  1  0.99398101  0.25601282  0.86044033  1
  Cd  Cd100  1  0.48975914  0.25964561  0.13045636  1
  Cd  Cd101  1  0.56599788  0.24264508  0.35294814  1
  Cd  Cd102  1  0.47575466  0.18901157  0.65408513  1
  Cd  Cd103  1  0.50907897  0.28900452  0.87490111  1
  Cd  Cd104  1  0.24210973  0.48168788  0.13259370  1
  Cd  Cd105  1  0.22589322  0.48986420  0.38104244  1
  Cd  Cd106  1  0.20577168  0.52501845  0.61619313  1
  Cd  Cd107  1  0.25615447  0.47205864  0.87858661  1
  Cd  Cd108  1  0.00197565  0.73120832  0.13131637  1
  Cd  Cd109  1  0.00609682  0.75314658  0.38004281  1
  Cd  Cd110  1  0.99155125  0.76420204  0.62749117  1
  Cd  Cd111  1  0.97319016  0.72898705  0.87222350  1
  Cd  Cd112  1  0.71121295  0.49362007  0.15539077  1
  Cd  Cd113  1  0.75246237  0.50114223  0.37074912  1
  Cd  Cd114  1  0.74563488  0.56351920  0.64074080  1
  Cd  Cd115  1  0.74027705  0.50139111  0.86709233  1
  Cd  Cd116  1  0.45892180  0.74306378  0.14801159  1
  Cd  Cd117  1  0.50560258  0.75948612  0.37149074  1
  Cd  Cd118  1  0.49536558  0.77517193  0.61941643  1
  Cd  Cd119  1  0.49024162  0.69305914  0.85565645  1
  Cd  Cd120  1  0.22891349  0.97400473  0.13198352  1
  Cd  Cd121  1  0.23907151  0.98619337  0.39281168  1
  Cd  Cd122  1  0.24405612  0.99564254  0.62927805  1
  Cd  Cd123  1  0.22499312  0.04519382  0.85124399  1
  Cd  Cd124  1  0.69320144  0.02193437  0.12169804  1
  Cd  Cd125  1  0.75686478  0.00094583  0.38769007  1
  Cd  Cd126  1  0.73647872  0.00437587  0.63080598  1
  Cd  Cd127  1  0.73179526  0.04834154  0.87795537  1
  In  In128  1  0.95227084  0.96983305  0.02575681  1
  In  In129  1  0.02660044  0.02162490  0.26416265  1
  In  In130  1  0.03367283  0.00565911  0.52151401  1
  In  In131  1  0.96580900  0.98278975  0.77685297  1
  In  In132  1  0.47492949  0.94684249  0.99761029  1
  In  In133  1  0.44448492  0.01743598  0.23505703  1
  In  In134  1  0.49596801  0.02026958  0.46017559  1
  In  In135  1  0.45711657  0.97318315  0.78303045  1
  In  In136  1  0.30305294  0.23197013  0.99943531  1
  In  In137  1  0.25263251  0.26507659  0.28405530  1
  In  In138  1  0.32082164  0.27872420  0.49180015  1
  In  In139  1  0.21581034  0.29899776  0.72117266  1
  In  In140  1  0.05596904  0.52940063  0.99859340  1
  In  In141  1  0.96476954  0.49154273  0.22844511  1
  In  In142  1  0.96730558  0.48643096  0.48191960  1
  In  In143  1  0.96460927  0.48974186  0.74453044  1
  In  In144  1  0.77997424  0.26146025  0.01458662  1
  In  In145  1  0.81121231  0.21593364  0.23566772  1
  In  In146  1  0.76897640  0.25619874  0.52015819  1
  In  In147  1  0.72117852  0.26213648  0.73393046  1
  In  In148  1  0.53443957  0.52812449  0.01144650  1
  In  In149  1  0.49348615  0.52169722  0.28750679  1
  In  In150  1  0.54938825  0.49912908  0.51890053  1
  In  In151  1  0.47065919  0.50058555  0.71331236  1
  In  In152  1  0.25024302  0.74174613  0.98641671  1
  In  In153  1  0.22171234  0.69546347  0.25451277  1
  In  In154  1  0.29448920  0.71619520  0.49659913  1
  In  In155  1  0.22516270  0.74138906  0.76226579  1
  In  In156  1  0.80031302  0.69857858  0.01026777  1
  In  In157  1  0.76973085  0.80071140  0.24615114  1
  In  In158  1  0.77908233  0.77920888  0.49220586  1
  In  In159  1  0.71466847  0.80465656  0.77149027  1
