# generated using pymatgen
data_CdInF3
_symmetry_space_group_name_H-M   'P 1'
_cell_length_a   12.67641499
_cell_length_b   12.67641499
_cell_length_c   17.92715700
_cell_angle_alpha   90.00000000
_cell_angle_beta   90.00000000
_cell_angle_gamma   90.00000000
_symmetry_Int_Tables_number   1
_chemical_formula_structural   CdInF3
_chemical_formula_sum   'Cd32 In32 F96'
_cell_volume   2880.74169490
_cell_formula_units_Z   32
loop_
 _symmetry_equiv_pos_site_id
 _symmetry_equiv_pos_as_xyz
  1  'x, y, z'
loop_
 _atom_site_type_symbol
 _atom_site_label
 _atom_site_symmetry_multiplicity
 _atom_site_fract_x
 _atom_site_fract_y
 _atom_site_fract_z
 _atom_site_occupancy
  Cd  Cd0  1  0.99659037  0.24724470  0.12817175  1
  Cd  Cd1  1  0.99931851  0.24362298  0.37547647  1
  Cd  Cd2  1  0.00336392  0.24425195  0.62507209  1
  Cd  Cd3  1  0.00263226  0.24709835  0.87670103  1
  Cd  Cd4  1  0.49652838  0.25459979  0.12468192  1
  Cd  Cd5  1  0.49845344  0.24762498  0.37565733  1
  Cd  Cd6  1  0.50075110  0.24958353  0.62597663  1
  Cd  Cd7  1  0.50113975  0.25063995  0.87562054  1
  Cd  Cd8  1  0.24971758  0.49697256  0.12844882  1
  Cd  Cd9  1  0.25322466  0.49620224  0.37879189  1
  Cd  Cd10  1  0.25468214  0.49537574  0.62655821  1
  Cd  Cd11  1  0.25008530  0.49965923  0.87471322  1
  Cd  Cd12  1  0.00146630  0.74773583  0.12720160  1
  Cd  Cd13  1  0.00320509  0.74650607  0.37429907  1
  Cd  Cd14  1  0.00235327  0.74814782  0.62753199  1
  Cd  Cd15  1  0.99935175  0.74531748  0.87625436  1
  Cd  Cd16  1  0.75222541  0.49613217  0.12695320  1
  Cd  Cd17  1  0.75110027  0.49988764  0.37489532  1
  Cd  Cd18  1  0.75336495  0.49699173  0.62439857  1
  Cd  Cd19  1  0.75591807  0.49369883  0.87530657  1
  Cd  Cd20  1  0.50133399  0.74857345  0.12440529  1
  Cd  Cd21  1  0.50293368  0.75147953  0.37981256  1
  Cd  Cd22  1  0.50149245  0.75285522  0.62766805  1
  Cd  Cd23  1  0.49797411  0.75666428  0.87507325  1
  Cd  Cd24  1  0.25185818  0.99753926  0.12521182  1
  Cd  Cd25  1  0.25306460  0.99449004  0.37649718  1
  Cd  Cd26  1  0.25317220  0.99855000  0.62740918  1
  Cd  Cd27  1  0.25399383  0.00232791  0.87639434  1
  Cd  Cd28  1  0.75151993  0.99897292  0.12612139  1
  Cd  Cd29  1  0.75081117  -0.00000613  0.37442144  1
  Cd  Cd30  1  0.75333235  0.00158670  0.62614169  1
  Cd  Cd31  1  0.75184330  0.99758386  0.87638645  1
  F  F32  1  0.02400400  0.22957349  0.00171334  1
  F  F33  1  0.99206062  0.27416180  0.25011499  1
  F  F34  1  0.00897513  0.28310717  0.50127578  1
  F  F35  1  0.00598034  0.28221334  0.75169316  1
  F  F36  1  0.49209029  0.21184434  -0.00007562  1
  F  F37  1  0.53934315  0.24411296  0.25028666  1
  F  F38  1  0.46578017  0.21595701  0.50106369  1
  F  F39  1  0.53317701  0.21525901  0.74961599  1
  F  F40  1  0.24190087  0.52478826  0.00023406  1
  F  F41  1  0.27314988  0.51852263  0.25052558  1
  F  F42  1  0.21875105  0.48638657  0.50158948  1
  F  F43  1  0.22545981  0.47413483  0.75102776  1
  F  F44  1  0.99468867  0.77849521  0.00007085  1
  F  F45  1  0.02711574  0.78519807  0.25013210  1
  F  F46  1  0.97278324  0.77626016  0.49821645  1
  F  F47  1  0.03976057  0.77504021  0.75033574  1
  F  F48  1  0.73248939  0.53467505  0.99979240  1
  F  F49  1  0.75403334  0.46244850  0.24869537  1
  F  F50  1  0.72600354  0.51167294  0.49861236  1
  F  F51  1  0.72303342  0.50015261  0.75094113  1
  F  F52  1  0.52519795  0.72678918  0.99840895  1
  F  F53  1  0.47262257  0.72591296  0.25002191  1
  F  F54  1  0.52095847  0.72404580  0.50153891  1
  F  F55  1  0.50176036  0.71704979  0.75009021  1
  F  F56  1  0.22180108  0.01131861  0.00016656  1
  F  F57  1  0.22166929  0.01713571  0.25223861  1
  F  F58  1  0.27382406  0.03162791  0.50086999  1
  F  F59  1  0.22021573  0.95988661  0.74876159  1
  F  F60  1  0.72016087  0.99892202  0.00072122  1
  F  F61  1  0.72217871  0.02986046  0.25119505  1
  F  F62  1  0.76571010  0.96409155  0.49910339  1
  F  F63  1  0.72333406  0.03618507  0.74908300  1
  F  F64  1  0.14923078  0.15222943  0.12665010  1
  F  F65  1  0.13268824  0.13208329  0.39352426  1
  F  F66  1  0.14516065  0.14147902  0.61265856  1
  F  F67  1  0.12102092  0.11898369  0.85389041  1
  F  F68  1  0.59928602  0.10254497  0.11757369  1
  F  F69  1  0.62252490  0.11920808  0.41028436  1
  F  F70  1  0.62336324  0.11832443  0.59372141  1
  F  F71  1  0.60178140  0.09825437  0.88376038  1
  F  F72  1  0.35535097  0.35592281  0.11929090  1
  F  F73  1  0.39639877  0.38948698  0.36388092  1
  F  F74  1  0.35829119  0.35261042  0.64521850  1
  F  F75  1  0.36268721  0.35889451  0.85620501  1
  F  F76  1  0.14041468  0.64193162  0.11421290  1
  F  F77  1  0.10600500  0.60429670  0.37167936  1
  F  F78  1  0.14847096  0.64662851  0.61598347  1
  F  F79  1  0.14669522  0.64909017  0.87165079  1
  F  F80  1  0.87749039  0.37584690  0.08898702  1
  F  F81  1  0.90030556  0.40051372  0.37370585  1
  F  F82  1  0.88152396  0.37942182  0.64038179  1
  F  F83  1  0.88322608  0.37931777  0.90322408  1
  F  F84  1  0.64108604  0.63608377  0.12482615  1
  F  F85  1  0.62106778  0.61685047  0.35033907  1
  F  F86  1  0.60671589  0.60321465  0.62616303  1
  F  F87  1  0.60933973  0.60606391  0.86988000  1
  F  F88  1  0.36544024  0.86603771  0.14433717  1
  F  F89  1  0.36641799  0.86159380  0.36056060  1
  F  F90  1  0.35209879  0.84786828  0.61654972  1
  F  F91  1  0.35506862  0.85784174  0.86351742  1
  F  F92  1  0.88093150  0.88483578  0.14903536  1
  F  F93  1  0.88116564  0.88290903  0.34703963  1
  F  F94  1  0.86559099  0.86337600  0.62777585  1
  F  F95  1  0.87308375  0.87397216  0.84603060  1
  F  F96  1  0.85055199  0.14684880  0.11436757  1
  F  F97  1  0.85165710  0.14857328  0.38851291  1
  F  F98  1  0.86586735  0.13725229  0.64386814  1
  F  F99  1  0.86477541  0.13385760  0.85860158  1
  F  F100  1  0.37594417  0.12153814  0.15399695  1
  F  F101  1  0.36657631  0.13219283  0.35475860  1
  F  F102  1  0.39773182  0.10020918  0.64403818  1
  F  F103  1  0.38073610  0.11657135  0.84642982  1
  F  F104  1  0.11701367  0.38193714  0.09785374  1
  F  F105  1  0.12028629  0.37996908  0.36070803  1
  F  F106  1  0.09827191  0.40373909  0.62757381  1
  F  F107  1  0.11847321  0.38288845  0.90090346  1
  F  F108  1  0.86910168  0.63290801  0.11504963  1
  F  F109  1  0.86072269  0.64123809  0.35423689  1
  F  F110  1  0.88941488  0.61302259  0.63395303  1
  F  F111  1  0.85619383  0.64334791  0.86398959  1
  F  F112  1  0.64956355  0.34726431  0.11360411  1
  F  F113  1  0.65464596  0.34270354  0.38259617  1
  F  F114  1  0.61736041  0.37683149  0.60658746  1
  F  F115  1  0.61851841  0.37867086  0.89024970  1
  F  F116  1  0.36912973  0.63096930  0.10809271  1
  F  F117  1  0.38455071  0.61550847  0.36942731  1
  F  F118  1  0.37596329  0.61927456  0.60365949  1
  F  F119  1  0.38883845  0.61062816  0.88832702  1
  F  F120  1  0.10206752  0.90146360  0.11665070  1
  F  F121  1  0.11415501  0.88591760  0.39941181  1
  F  F122  1  0.12106134  0.88201115  0.59401843  1
  F  F123  1  0.10095815  0.89841024  0.87956936  1
  F  F124  1  0.61471064  0.88219443  0.14362499  1
  F  F125  1  0.64387301  0.85529745  0.36188647  1
  F  F126  1  0.63400327  0.86713988  0.61718222  1
  F  F127  1  0.64547031  0.85252439  0.85971141  1
  In  In128  1  0.02302878  0.97464523  0.00078995  1
  In  In129  1  0.99266876  0.97013586  0.24563771  1
  In  In130  1  0.01177390  0.96803532  0.49936764  1
  In  In131  1  0.02262789  0.98698861  0.76713743  1
  In  In132  1  0.52515838  0.02322225  0.00029657  1
  In  In133  1  0.52062028  0.00500002  0.23303798  1
  In  In134  1  0.50700098  0.02593802  0.50749903  1
  In  In135  1  0.50305958  0.02564359  0.75764237  1
  In  In136  1  0.22261003  0.25128226  0.01560879  1
  In  In137  1  0.25598722  0.21191228  0.24848070  1
  In  In138  1  0.23946500  0.22214275  0.49611855  1
  In  In139  1  0.26015773  0.27301539  0.75508756  1
  In  In140  1  0.00897298  0.48117981  0.99864960  1
  In  In141  1  0.00966304  0.47907788  0.27574636  1
  In  In142  1  0.02031641  0.48042270  0.50415680  1
  In  In143  1  0.99560534  0.47613798  0.73193448  1
  In  In144  1  0.76101650  0.25511713  0.01409015  1
  In  In145  1  0.73483021  0.26267802  0.25130113  1
  In  In146  1  0.74428846  0.24439265  0.48612704  1
  In  In147  1  0.77033941  0.22499753  0.75107512  1
  In  In148  1  0.51367118  0.52143348  0.98024714  1
  In  In149  1  0.47726168  0.51480775  0.26866497  1
  In  In150  1  0.52643480  0.51779554  0.51609080  1
  In  In151  1  0.52853146  0.52165175  0.75447859  1
  In  In152  1  0.25389297  0.71444968  0.01325183  1
  In  In153  1  0.28144704  0.75436735  0.25469697  1
  In  In154  1  0.25869748  0.73796414  0.52459364  1
  In  In155  1  0.24345073  0.75359699  0.76505152  1
  In  In156  1  0.74693427  0.72419068  0.02380375  1
  In  In157  1  0.74560136  0.74552718  0.27003066  1
  In  In158  1  0.75692650  0.77252628  0.52281702  1
  In  In159  1  0.75595762  0.75287364  0.77114960  1
