# generated using pymatgen
data_CdInCl3
_symmetry_space_group_name_H-M   'P 1'
_cell_length_a   14.84647196
_cell_length_b   14.84647196
_cell_length_c   20.99608300
_cell_angle_alpha   90.00000000
_cell_angle_beta   90.00000000
_cell_angle_gamma   90.00000000
_symmetry_Int_Tables_number   1
_chemical_formula_structural   CdInCl3
_chemical_formula_sum   'Cd32 In32 Cl96'
_cell_volume   4627.90894694
_cell_formula_units_Z   32
loop_
 _symmetry_equiv_pos_site_id
 _symmetry_equiv_pos_as_xyz
  1  'x, y, z'
loop_
 _atom_site_type_symbol
 _atom_site_label
 _atom_site_symmetry_multiplicity
 _atom_site_fract_x
 _atom_site_fract_y
 _atom_site_fract_z
 _atom_site_occupancy
  Cd  Cd0  1  0.00175956  0.00063617  -0.00035049  1
  Cd  Cd1  1  0.00381916  0.00131075  0.24984371  1
  Cd  Cd2  1  0.99454655  0.00324002  0.49803438  1
  Cd  Cd3  1  0.99531311  0.00300453  0.75268316  1
  Cd  Cd4  1  0.49741298  0.00392803  0.99840070  1
  Cd  Cd5  1  0.49793020  0.00622137  0.25194919  1
  Cd  Cd6  1  0.50048775  0.99597181  0.49939082  1
  Cd  Cd7  1  0.49930911  0.99273739  0.75079264  1
  Cd  Cd8  1  0.25432813  0.24734882  0.99748027  1
  Cd  Cd9  1  0.25434200  0.24788183  0.25197761  1
  Cd  Cd10  1  0.24611974  0.25035142  0.49924833  1
  Cd  Cd11  1  0.24193955  0.24924598  0.75034817  1
  Cd  Cd12  1  0.99834593  0.50684610  0.99761352  1
  Cd  Cd13  1  0.99840917  0.50418406  0.25150885  1
  Cd  Cd14  1  -0.00277916  0.49924342  0.49971466  1
  Cd  Cd15  1  -0.00212163  0.49899775  0.74935383  1
  Cd  Cd16  1  0.75070207  0.25287922  0.00002682  1
  Cd  Cd17  1  0.75118697  0.25147399  0.25044390  1
  Cd  Cd18  1  0.75069341  0.24707058  0.50026886  1
  Cd  Cd19  1  0.74972722  0.24584182  0.75035258  1
  Cd  Cd20  1  0.50357177  0.50071198  -0.00005221  1
  Cd  Cd21  1  0.50100543  0.50061107  0.25073687  1
  Cd  Cd22  1  0.49702018  0.50080419  0.49994417  1
  Cd  Cd23  1  0.49618373  0.50067850  0.75090722  1
  Cd  Cd24  1  0.25058765  0.75290484  -0.00034423  1
  Cd  Cd25  1  0.25031544  0.75316049  0.25001471  1
  Cd  Cd26  1  0.25151666  0.74217340  0.49934818  1
  Cd  Cd27  1  0.25210778  0.74521887  0.75083070  1
  Cd  Cd28  1  0.75411154  0.74875996  0.99808546  1
  Cd  Cd29  1  0.75350659  0.74855639  0.25191554  1
  Cd  Cd30  1  0.74750599  0.74768978  0.49979351  1
  Cd  Cd31  1  0.74739636  0.74914890  0.75018755  1
  Cl  Cl32  1  0.15084789  0.10504158  0.98019597  1
  Cl  Cl33  1  0.14555591  0.11165248  0.27592867  1
  Cl  Cl34  1  0.10029043  0.14536624  0.47915385  1
  Cl  Cl35  1  0.10526792  0.13928250  0.77697582  1
  Cl  Cl36  1  0.64984107  0.10610010  0.01815682  1
  Cl  Cl37  1  0.65016973  0.10544456  0.23292326  1
  Cl  Cl38  1  0.60068725  0.14532009  0.51880293  1
  Cl  Cl39  1  0.60279977  0.14030879  0.73083858  1
  Cl  Cl40  1  0.35709140  0.39912958  0.01853910  1
  Cl  Cl41  1  0.35487677  0.40038398  0.23277694  1
  Cl  Cl42  1  0.39325038  0.35259428  0.52072790  1
  Cl  Cl43  1  0.38659798  0.35642219  0.72719190  1
  Cl  Cl44  1  0.14975658  0.60573181  0.01752720  1
  Cl  Cl45  1  0.14908353  0.60623009  0.23191273  1
  Cl  Cl46  1  0.09759565  0.64675908  0.51704153  1
  Cl  Cl47  1  0.10025016  0.64488588  0.73138911  1
  Cl  Cl48  1  0.86394693  0.39427204  0.97422301  1
  Cl  Cl49  1  0.85704480  0.39894937  0.27034708  1
  Cl  Cl50  1  0.89629647  0.34922625  0.48104161  1
  Cl  Cl51  1  0.88585886  0.35777507  0.77555915  1
  Cl  Cl52  1  0.64346850  0.61293586  0.97378505  1
  Cl  Cl53  1  0.64766876  0.60747169  0.27100457  1
  Cl  Cl54  1  0.59960756  0.64522159  0.47936479  1
  Cl  Cl55  1  0.60320691  0.64054753  0.77324348  1
  Cl  Cl56  1  0.35376537  0.90167303  0.98083919  1
  Cl  Cl57  1  0.36200802  0.89565132  0.27544988  1
  Cl  Cl58  1  0.38654792  0.85685279  0.47493784  1
  Cl  Cl59  1  0.38886219  0.85528936  0.77512166  1
  Cl  Cl60  1  0.85392967  0.90071861  0.01759951  1
  Cl  Cl61  1  0.85646802  0.89885621  0.23142269  1
  Cl  Cl62  1  0.89238271  0.85042879  0.51827602  1
  Cl  Cl63  1  0.89222772  0.85221658  0.73133511  1
  Cl  Cl64  1  0.89900951  0.14814256  0.98125401  1
  Cl  Cl65  1  0.89700343  0.14764959  0.26936050  1
  Cl  Cl66  1  0.84153562  0.09279750  0.48648207  1
  Cl  Cl67  1  0.84403865  0.09459905  0.76587467  1
  Cl  Cl68  1  0.40943324  0.15910261  0.98446832  1
  Cl  Cl69  1  0.40799046  0.15908115  0.26715957  1
  Cl  Cl70  1  0.35536005  0.10674346  0.48007585  1
  Cl  Cl71  1  0.35762129  0.10791325  0.76757177  1
  Cl  Cl72  1  0.10958817  0.35704958  0.01447749  1
  Cl  Cl73  1  0.10702447  0.35777903  0.23338784  1
  Cl  Cl74  1  0.13874708  0.39080323  0.52650443  1
  Cl  Cl75  1  0.13303946  0.38595669  0.72204497  1
  Cl  Cl76  1  0.90695068  0.65885001  0.98344150  1
  Cl  Cl77  1  0.90689785  0.65739042  0.26403939  1
  Cl  Cl78  1  0.85230580  0.60276828  0.47668876  1
  Cl  Cl79  1  0.85337490  0.60513444  0.77250379  1
  Cl  Cl80  1  0.61602613  0.36591880  0.02608456  1
  Cl  Cl81  1  0.61279815  0.36253872  0.22544037  1
  Cl  Cl82  1  0.64503000  0.39493445  0.51395820  1
  Cl  Cl83  1  0.63961829  0.39064107  0.73700785  1
  Cl  Cl84  1  0.39684836  0.64824220  0.98185248  1
  Cl  Cl85  1  0.39744914  0.64818761  0.26919869  1
  Cl  Cl86  1  0.34288119  0.59196225  0.48596237  1
  Cl  Cl87  1  0.34273386  0.59395856  0.76390767  1
  Cl  Cl88  1  0.11068100  0.86135995  0.02636586  1
  Cl  Cl89  1  0.11471886  0.86497308  0.22408496  1
  Cl  Cl90  1  0.13944589  0.89415633  0.51261869  1
  Cl  Cl91  1  0.14087727  0.89274824  0.73589818  1
  Cl  Cl92  1  0.60488577  0.85847213  0.01617572  1
  Cl  Cl93  1  0.60722475  0.85746904  0.23484093  1
  Cl  Cl94  1  0.63713587  0.88717437  0.52691430  1
  Cl  Cl95  1  0.63566555  0.88475246  0.72179735  1
  Cl  Cl96  1  0.01414724  0.04189856  0.12512954  1
  Cl  Cl97  1  0.99505213  0.95985982  0.37371173  1
  Cl  Cl98  1  -0.00663895  0.02988014  0.62565340  1
  Cl  Cl99  1  0.00137704  0.95723489  0.87641430  1
  Cl  Cl100  1  0.46913906  0.01152228  0.12596207  1
  Cl  Cl101  1  0.54374876  0.00102653  0.37638774  1
  Cl  Cl102  1  0.45694974  0.99266709  0.62422086  1
  Cl  Cl103  1  0.54193957  0.00266210  0.87435058  1
  Cl  Cl104  1  0.26045450  0.21998272  0.12549991  1
  Cl  Cl105  1  0.24858784  0.29507453  0.37633816  1
  Cl  Cl106  1  0.24117628  0.20687047  0.62455097  1
  Cl  Cl107  1  0.25482278  0.29274371  0.87355306  1
  Cl  Cl108  1  0.97000673  0.50907442  0.12377973  1
  Cl  Cl109  1  0.04204151  0.49951233  0.37567072  1
  Cl  Cl110  1  0.95536431  0.48633600  0.62483083  1
  Cl  Cl111  1  0.04363866  0.50041691  0.87340914  1
  Cl  Cl112  1  0.79127463  0.26492458  0.12475024  1
  Cl  Cl113  1  0.71007431  0.25208692  0.37497046  1
  Cl  Cl114  1  0.78678715  0.24417261  0.62594493  1
  Cl  Cl115  1  0.70802563  0.24756108  0.87625041  1
  Cl  Cl116  1  0.51478375  0.54059313  0.12525109  1
  Cl  Cl117  1  0.50047809  0.45922708  0.37493630  1
  Cl  Cl118  1  0.49546196  0.53617257  0.62550740  1
  Cl  Cl119  1  0.49331551  0.45886243  0.87565858  1
  Cl  Cl120  1  0.29097173  0.76480778  0.12542598  1
  Cl  Cl121  1  0.20842714  0.75009891  0.37436475  1
  Cl  Cl122  1  0.27806562  0.75466312  0.62436202  1
  Cl  Cl123  1  0.20835517  0.75115318  0.87573560  1
  Cl  Cl124  1  0.75758922  0.72011838  0.12422978  1
  Cl  Cl125  1  0.75014139  0.79224878  0.37573070  1
  Cl  Cl126  1  0.73456951  0.70541524  0.62501817  1
  Cl  Cl127  1  0.74618708  0.79495988  0.87419802  1
  In  In128  1  0.99771224  0.24844338  0.12265309  1
  In  In129  1  0.02316804  0.26860675  0.36311574  1
  In  In130  1  0.01661851  0.27895218  0.61519492  1
  In  In131  1  0.01355373  0.27791430  0.88677503  1
  In  In132  1  0.47550210  0.22852196  0.12461826  1
  In  In133  1  0.49335203  0.24027851  0.39951828  1
  In  In134  1  0.46815088  0.21657930  0.62681394  1
  In  In135  1  0.48863664  0.23857442  0.85084012  1
  In  In136  1  0.22091626  0.47106197  0.12424781  1
  In  In137  1  0.25933907  0.51251430  0.35269916  1
  In  In138  1  0.27885012  0.50366564  0.62948686  1
  In  In139  1  0.26571585  0.50882800  0.89834149  1
  In  In140  1  0.97589860  0.72804191  0.12646077  1
  In  In141  1  0.98784916  0.74107834  0.39803986  1
  In  In142  1  0.02816418  0.78014323  0.62506402  1
  In  In143  1  0.99334757  0.73986544  0.85174770  1
  In  In144  1  0.72495127  0.47466110  0.13099127  1
  In  In145  1  0.72711078  0.47786533  0.38270201  1
  In  In146  1  0.74326067  0.49262896  0.62654732  1
  In  In147  1  0.73220993  0.47634391  0.86180460  1
  In  In148  1  0.49715855  0.74654888  0.12598563  1
  In  In149  1  0.51709758  0.77387984  0.36340401  1
  In  In150  1  0.53073739  0.76519976  0.62150022  1
  In  In151  1  0.52597662  0.76345873  0.88703686  1
  In  In152  1  0.22504942  0.97516703  0.11879248  1
  In  In153  1  0.23485008  0.97553683  0.38650053  1
  In  In154  1  0.24625063  0.99153677  0.62393042  1
  In  In155  1  0.23049374  0.98163671  0.86382479  1
  In  In156  1  0.72029330  0.97065829  0.12541809  1
  In  In157  1  0.76541990  0.00880034  0.35223599  1
  In  In158  1  0.77534136  0.02080853  0.62737614  1
  In  In159  1  0.75709317  0.01355330  0.89853836  1
