# generated using pymatgen
data_InGaCl3
_symmetry_space_group_name_H-M   'P 1'
_cell_length_a   14.47215933
_cell_length_b   14.47215933
_cell_length_c   20.46672400
_cell_angle_alpha   90.00000000
_cell_angle_beta   90.00000000
_cell_angle_gamma   90.00000000
_symmetry_Int_Tables_number   1
_chemical_formula_structural   InGaCl3
_chemical_formula_sum   'In32 Ga32 Cl96'
_cell_volume   4286.62017231
_cell_formula_units_Z   32
loop_
 _symmetry_equiv_pos_site_id
 _symmetry_equiv_pos_as_xyz
  1  'x, y, z'
loop_
 _atom_site_type_symbol
 _atom_site_label
 _atom_site_symmetry_multiplicity
 _atom_site_fract_x
 _atom_site_fract_y
 _atom_site_fract_z
 _atom_site_occupancy
  In  In0  1  0.99913057  0.04244475  0.97637995  1
  In  In1  1  0.98624947  0.98730280  0.22624583  1
  In  In2  1  -0.00003108  -0.01397979  0.49003734  1
  In  In3  1  0.94728655  -0.01457271  0.74420418  1
  In  In4  1  0.51521878  -0.01370710  0.99891558  1
  In  In5  1  0.52085546  0.98354099  0.25366816  1
  In  In6  1  0.53782003  0.98411068  0.48447294  1
  In  In7  1  0.51438249  0.00741594  0.70959611  1
  In  In8  1  0.29629613  0.25127535  0.00867100  1
  In  In9  1  0.23746285  0.30993403  0.25864302  1
  In  In10  1  0.20364167  0.22771140  0.53485802  1
  In  In11  1  0.29607392  0.21882971  0.76476733  1
  In  In12  1  -0.00117590  0.48252652  0.01193852  1
  In  In13  1  0.97934098  0.50123153  0.27558465  1
  In  In14  1  0.95801085  0.53555291  0.49889871  1
  In  In15  1  0.98499663  0.50613679  0.72152766  1
  In  In16  1  0.71501091  0.23578861  0.03295281  1
  In  In17  1  0.77538253  0.22955687  0.22343759  1
  In  In18  1  0.76410091  0.23923616  0.51731697  1
  In  In19  1  0.72266268  0.25158573  0.75476552  1
  In  In20  1  0.53966854  0.50763583  0.98053906  1
  In  In21  1  0.50042457  0.51365041  0.23257355  1
  In  In22  1  0.50795477  0.53553129  0.49137945  1
  In  In23  1  0.49175685  0.52450111  0.76690432  1
  In  In24  1  0.21127541  0.80641460  0.00269146  1
  In  In25  1  0.24543420  0.73741931  0.26845579  1
  In  In26  1  0.26610120  0.79047021  0.48701612  1
  In  In27  1  0.25547757  0.77848811  0.77618529  1
  In  In28  1  0.76269348  0.73360024  0.98776629  1
  In  In29  1  0.77930952  0.74383054  0.24179816  1
  In  In30  1  0.77047405  0.77144590  0.50803800  1
  In  In31  1  0.71467398  0.70757818  0.73783878  1
  Ga  Ga32  1  0.01704468  0.24678399  0.11736121  1
  Ga  Ga33  1  0.01180099  0.24665754  0.38092950  1
  Ga  Ga34  1  0.99968950  0.25775534  0.63078252  1
  Ga  Ga35  1  0.99402813  0.29159366  0.87124947  1
  Ga  Ga36  1  0.49261972  0.25390490  0.16931873  1
  Ga  Ga37  1  0.48758384  0.24055519  0.36930724  1
  Ga  Ga38  1  0.48018556  0.27068150  0.57111933  1
  Ga  Ga39  1  0.50964234  0.24777507  0.88575323  1
  Ga  Ga40  1  0.23226148  0.50570654  0.13035273  1
  Ga  Ga41  1  0.26589425  0.49654518  0.40661667  1
  Ga  Ga42  1  0.25316294  0.46456747  0.65070888  1
  Ga  Ga43  1  0.25172834  0.49588102  0.87662694  1
  Ga  Ga44  1  0.01076707  0.73731975  0.10527066  1
  Ga  Ga45  1  0.01637787  0.73677397  0.37458056  1
  Ga  Ga46  1  0.01452497  0.74281628  0.62590692  1
  Ga  Ga47  1  0.01350384  0.75354678  0.87440952  1
  Ga  Ga48  1  0.76242919  0.49103310  0.13151282  1
  Ga  Ga49  1  0.70508254  0.42457281  0.37206333  1
  Ga  Ga50  1  0.73939225  0.49732388  0.61770627  1
  Ga  Ga51  1  0.77388973  0.48944038  0.87451048  1
  Ga  Ga52  1  0.48747477  0.75375136  0.11221660  1
  Ga  Ga53  1  0.51337554  0.74545740  0.36011482  1
  Ga  Ga54  1  0.49069191  0.76161936  0.60858488  1
  Ga  Ga55  1  0.49532664  0.75254340  0.87188274  1
  Ga  Ga56  1  0.24472829  0.01548505  0.13895705  1
  Ga  Ga57  1  0.27759657  0.04386046  0.36532317  1
  Ga  Ga58  1  0.23446016  0.00469244  0.63699024  1
  Ga  Ga59  1  0.24523583  0.02333425  0.87839363  1
  Ga  Ga60  1  0.75058178  0.98742584  0.11233285  1
  Ga  Ga61  1  0.77427711  0.00176273  0.36499769  1
  Ga  Ga62  1  0.74491440  0.00623850  0.61680273  1
  Ga  Ga63  1  0.73445204  0.97753809  0.86287891  1
  Cl  Cl64  1  0.06009096  0.27731597  0.98597441  1
  Cl  Cl65  1  0.99473145  0.27515678  0.26861607  1
  Cl  Cl66  1  -0.01448376  0.20251228  0.49137349  1
  Cl  Cl67  1  0.93442249  0.30055392  0.76196191  1
  Cl  Cl68  1  0.50623453  0.28450886  0.00030382  1
  Cl  Cl69  1  0.39975504  0.16602048  0.28456029  1
  Cl  Cl70  1  0.57483213  0.31637649  0.45213663  1
  Cl  Cl71  1  0.50447913  0.20607262  0.77253158  1
  Cl  Cl72  1  0.21807774  0.48932600  0.01477563  1
  Cl  Cl73  1  0.25857406  0.52204806  0.25008665  1
  Cl  Cl74  1  0.30015896  0.42380975  0.54609260  1
  Cl  Cl75  1  0.27658692  0.56920270  0.73322486  1
  Cl  Cl76  1  0.97299844  0.81943546  0.97460148  1
  Cl  Cl77  1  0.01113079  0.74059907  0.26046321  1
  Cl  Cl78  1  0.99561334  0.76362782  0.48827088  1
  Cl  Cl79  1  0.99534559  0.73563930  0.76294145  1
  Cl  Cl80  1  0.75574777  0.51973516  0.01539057  1
  Cl  Cl81  1  0.78220584  0.45425841  0.24535854  1
  Cl  Cl82  1  0.73259887  0.51786456  0.50380212  1
  Cl  Cl83  1  0.76316610  0.49027036  0.73389860  1
  Cl  Cl84  1  0.54938029  0.76093976  0.00173276  1
  Cl  Cl85  1  0.44974316  0.73127245  0.22519389  1
  Cl  Cl86  1  0.54982268  0.74073852  0.49897557  1
  Cl  Cl87  1  0.47290573  0.75150820  0.72198859  1
  Cl  Cl88  1  0.20987283  0.02879555  0.02397173  1
  Cl  Cl89  1  0.30295970  0.95442641  0.23557419  1
  Cl  Cl90  1  0.21568118  0.00967403  0.52226318  1
  Cl  Cl91  1  0.29872156  0.97843212  0.74308536  1
  Cl  Cl92  1  0.73471564  0.96088795  0.97707679  1
  Cl  Cl93  1  0.75611211  0.00699454  0.25021030  1
  Cl  Cl94  1  0.77141582  0.00983065  0.48115174  1
  Cl  Cl95  1  0.72078492  0.02820314  0.75146313  1
  Cl  Cl96  1  0.15498712  0.12762577  0.18213217  1
  Cl  Cl97  1  0.06203277  0.09904364  0.36042144  1
  Cl  Cl98  1  0.11078177  0.09045144  0.66702272  1
  Cl  Cl99  1  0.07974855  0.16791016  0.84623127  1
  Cl  Cl100  1  0.61172135  0.12801128  0.14327348  1
  Cl  Cl101  1  0.58265909  0.10847708  0.37252453  1
  Cl  Cl102  1  0.59790910  0.13280177  0.59428232  1
  Cl  Cl103  1  0.64144808  0.15867196  0.90166074  1
  Cl  Cl104  1  0.34481783  0.39573409  0.13093795  1
  Cl  Cl105  1  0.39633093  0.37537046  0.35502849  1
  Cl  Cl106  1  0.38726674  0.38141542  0.68818415  1
  Cl  Cl107  1  0.37350776  0.34378635  0.87363288  1
  Cl  Cl108  1  0.21326619  0.65974805  0.12632170  1
  Cl  Cl109  1  0.11123904  0.61219444  0.38833024  1
  Cl  Cl110  1  0.13450216  0.55398970  0.60457656  1
  Cl  Cl111  1  0.14314974  0.66991647  0.89457173  1
  Cl  Cl112  1  0.86580890  0.36453422  0.10524513  1
  Cl  Cl113  1  0.91605008  0.37404221  0.40103710  1
  Cl  Cl114  1  0.88165441  0.40559385  0.60317675  1
  Cl  Cl115  1  0.85343765  0.30033215  0.91671235  1
  Cl  Cl116  1  0.66553528  0.61523130  0.15606135  1
  Cl  Cl117  1  0.60373470  0.57429165  0.35568908  1
  Cl  Cl118  1  0.60443033  0.58785967  0.63429395  1
  Cl  Cl119  1  0.65209356  0.62849763  0.87267848  1
  Cl  Cl120  1  0.37460553  0.85597723  0.08730490  1
  Cl  Cl121  1  0.38971462  0.90536632  0.39248771  1
  Cl  Cl122  1  0.40530889  0.89225665  0.58881280  1
  Cl  Cl123  1  0.34373860  0.87759988  0.90251555  1
  Cl  Cl124  1  0.87561233  0.84738498  0.13286461  1
  Cl  Cl125  1  0.90219205  0.91049996  0.36152028  1
  Cl  Cl126  1  0.89704184  0.87903184  0.62004843  1
  Cl  Cl127  1  0.80943223  0.84387166  0.83909373  1
  Cl  Cl128  1  0.89730729  0.10447353  0.10406585  1
  Cl  Cl129  1  0.81795149  0.15531054  0.36351855  1
  Cl  Cl130  1  0.85736214  0.14930086  0.63706999  1
  Cl  Cl131  1  0.85885442  0.07645474  0.86917521  1
  Cl  Cl132  1  0.37770642  0.09676846  0.11563075  1
  Cl  Cl133  1  0.38826966  0.17608445  0.45107390  1
  Cl  Cl134  1  0.34465082  0.12296094  0.62705163  1
  Cl  Cl135  1  0.40502306  0.12132825  0.91029849  1
  Cl  Cl136  1  0.09524386  0.43483486  0.14949556  1
  Cl  Cl137  1  0.15200514  0.31704884  0.39902464  1
  Cl  Cl138  1  0.15770388  0.35923136  0.69808461  1
  Cl  Cl139  1  0.05122253  0.43550652  0.86407960  1
  Cl  Cl140  1  0.89408644  0.59217117  0.14157465  1
  Cl  Cl141  1  0.87461830  0.65818293  0.37621479  1
  Cl  Cl142  1  0.83990042  0.63521667  0.61944271  1
  Cl  Cl143  1  0.90769461  0.63462406  0.89378979  1
  Cl  Cl144  1  0.63395497  0.39021358  0.12380830  1
  Cl  Cl145  1  0.59123189  0.30455024  0.28740422  1
  Cl  Cl146  1  0.65308470  0.36113371  0.62112847  1
  Cl  Cl147  1  0.60346305  0.37971915  0.86001317  1
  Cl  Cl148  1  0.44042986  0.60785518  0.09250418  1
  Cl  Cl149  1  0.36461024  0.64819809  0.39398997  1
  Cl  Cl150  1  0.38062330  0.65276672  0.58704472  1
  Cl  Cl151  1  0.39044244  0.60429720  0.89704412  1
  Cl  Cl152  1  0.13555320  0.89351665  0.13913997  1
  Cl  Cl153  1  0.12391818  0.85704478  0.37468144  1
  Cl  Cl154  1  0.17513377  0.85588730  0.63950738  1
  Cl  Cl155  1  0.08934201  0.89781727  0.85229470  1
  Cl  Cl156  1  0.60945372  0.84357515  0.14416605  1
  Cl  Cl157  1  0.66251256  0.88777949  0.36899979  1
  Cl  Cl158  1  0.63305897  0.83671392  0.62666084  1
  Cl  Cl159  1  0.58038357  0.93792860  0.85689287  1
