# generated using pymatgen
data_InGeCl3
_symmetry_space_group_name_H-M   'P 1'
_cell_length_a   14.85555970
_cell_length_b   14.85555970
_cell_length_c   21.00893400
_cell_angle_alpha   90.00000000
_cell_angle_beta   90.00000000
_cell_angle_gamma   90.00000000
_symmetry_Int_Tables_number   1
_chemical_formula_structural   InGeCl3
_chemical_formula_sum   'In32 Ge32 Cl96'
_cell_volume   4636.41235557
_cell_formula_units_Z   32
loop_
 _symmetry_equiv_pos_site_id
 _symmetry_equiv_pos_as_xyz
  1  'x, y, z'
loop_
 _atom_site_type_symbol
 _atom_site_label
 _atom_site_symmetry_multiplicity
 _atom_site_fract_x
 _atom_site_fract_y
 _atom_site_fract_z
 _atom_site_occupancy
  Cl  Cl0  1  0.06952388  0.17820343  0.98009445  1
  Cl  Cl1  1  0.00053539  0.28188123  0.22857501  1
  Cl  Cl2  1  0.00164844  0.21525340  0.48693147  1
  Cl  Cl3  1  0.94631423  0.27742680  0.74029913  1
  Cl  Cl4  1  0.47105020  0.23803745  0.01969482  1
  Cl  Cl5  1  0.57983418  0.25095131  0.26768228  1
  Cl  Cl6  1  0.43106415  0.25271698  0.51047673  1
  Cl  Cl7  1  0.54247453  0.25961602  0.76302163  1
  Cl  Cl8  1  0.32463406  0.48711709  0.99736761  1
  Cl  Cl9  1  0.20296980  0.50502966  0.25273465  1
  Cl  Cl10  1  0.28970456  0.49408246  0.50680476  1
  Cl  Cl11  1  0.18781981  0.52537181  0.75292438  1
  Cl  Cl12  1  0.94702383  0.73329547  0.02539135  1
  Cl  Cl13  1  0.07060389  0.74948010  0.27164389  1
  Cl  Cl14  1  0.93330583  0.75750086  0.51833019  1
  Cl  Cl15  1  0.05320297  0.76674621  0.77551793  1
  Cl  Cl16  1  0.75450544  0.54517202  0.98903696  1
  Cl  Cl17  1  0.77053201  0.43255824  0.23880741  1
  Cl  Cl18  1  0.74338311  0.56986299  0.48243961  1
  Cl  Cl19  1  0.73469002  0.46225259  0.73242352  1
  Cl  Cl20  1  0.55104123  0.73942246  0.98271783  1
  Cl  Cl21  1  0.48160229  0.77974471  0.23774709  1
  Cl  Cl22  1  0.49913498  0.70311606  0.48985560  1
  Cl  Cl23  1  0.45469620  0.80144845  0.73766852  1
  Cl  Cl24  1  0.27524898  0.05620938  0.02107711  1
  Cl  Cl25  1  0.26014953  0.92750329  0.26615047  1
  Cl  Cl26  1  0.23462319  0.06469774  0.51028563  1
  Cl  Cl27  1  0.26572177  0.95510844  0.76674239  1
  Cl  Cl28  1  0.76912750  0.93802625  0.01291368  1
  Cl  Cl29  1  0.70898223  0.00522369  0.26120314  1
  Cl  Cl30  1  0.76792482  0.97881916  0.51415010  1
  Cl  Cl31  1  0.77016976  0.06231265  0.76914695  1
  Cl  Cl32  1  0.17308213  0.12535981  0.16851066  1
  Cl  Cl33  1  0.08236188  0.10296569  0.35203221  1
  Cl  Cl34  1  0.11729235  0.17924021  0.64533420  1
  Cl  Cl35  1  0.09470681  0.10496637  0.82402801  1
  Cl  Cl36  1  0.67889323  0.12861869  0.09343520  1
  Cl  Cl37  1  0.60542578  0.08472719  0.40142595  1
  Cl  Cl38  1  0.62003923  0.16434050  0.58641199  1
  Cl  Cl39  1  0.60612534  0.13952325  0.89596565  1
  Cl  Cl40  1  0.38913765  0.34303351  0.15750733  1
  Cl  Cl41  1  0.41759667  0.38682114  0.34538538  1
  Cl  Cl42  1  0.32651827  0.36775699  0.64719544  1
  Cl  Cl43  1  0.36635671  0.39723209  0.82431861  1
  Cl  Cl44  1  0.16975341  0.62506233  0.08254301  1
  Cl  Cl45  1  0.10596091  0.57880926  0.40200025  1
  Cl  Cl46  1  0.12220680  0.66840665  0.59431536  1
  Cl  Cl47  1  0.10921270  0.62021974  0.90814909  1
  Cl  Cl48  1  0.88643380  0.32529933  0.08629007  1
  Cl  Cl49  1  0.88360361  0.41228525  0.40514358  1
  Cl  Cl50  1  0.82195883  0.38209587  0.58654214  1
  Cl  Cl51  1  0.88041471  0.38947530  0.90005409  1
  Cl  Cl52  1  0.67793807  0.61997478  0.15869107  1
  Cl  Cl53  1  0.58505232  0.60795281  0.34589060  1
  Cl  Cl54  1  0.61755527  0.67665697  0.65496168  1
  Cl  Cl55  1  0.60945228  0.62444799  0.84374350  1
  Cl  Cl56  1  0.37578661  0.82996031  0.09366644  1
  Cl  Cl57  1  0.38605566  0.90709054  0.40693455  1
  Cl  Cl58  1  0.32193637  0.87948355  0.59179296  1
  Cl  Cl59  1  0.38919878  0.90811008  0.90230332  1
  Cl  Cl60  1  0.88178457  0.82871687  0.16976104  1
  Cl  Cl61  1  0.91314315  0.88547875  0.35441231  1
  Cl  Cl62  1  0.82224814  0.86873863  0.65774348  1
  Cl  Cl63  1  0.87979961  0.90292209  0.86338813  1
  Cl  Cl64  1  0.92627631  0.09653501  0.13156423  1
  Cl  Cl65  1  0.82859623  0.15062693  0.35928076  1
  Cl  Cl66  1  0.89199460  0.08857865  0.62238726  1
  Cl  Cl67  1  0.85249242  0.12749173  0.92078344  1
  Cl  Cl68  1  0.42797354  0.10277107  0.15583409  1
  Cl  Cl69  1  0.35024403  0.12487333  0.33964414  1
  Cl  Cl70  1  0.40155406  0.11861076  0.64977280  1
  Cl  Cl71  1  0.35028109  0.13219760  0.86025185  1
  Cl  Cl72  1  0.14063551  0.38792646  0.07337960  1
  Cl  Cl73  1  0.14900108  0.32887628  0.38362201  1
  Cl  Cl74  1  0.06617216  0.40569306  0.61924675  1
  Cl  Cl75  1  0.13552887  0.33577506  0.86338077  1
  Cl  Cl76  1  0.94010946  0.59001346  0.15714509  1
  Cl  Cl77  1  0.84899243  0.63093990  0.33662921  1
  Cl  Cl78  1  0.90196003  0.61968519  0.65388892  1
  Cl  Cl79  1  0.87489758  0.61703969  0.85367935  1
  Cl  Cl80  1  0.63374028  0.40010330  0.10392567  1
  Cl  Cl81  1  0.63430820  0.34601892  0.41794814  1
  Cl  Cl82  1  0.58735548  0.43084165  0.60144080  1
  Cl  Cl83  1  0.60465466  0.38337526  0.89867436  1
  Cl  Cl84  1  0.42438941  0.60240026  0.13442353  1
  Cl  Cl85  1  0.32248272  0.65257770  0.35437200  1
  Cl  Cl86  1  0.37545924  0.60051829  0.64673374  1
  Cl  Cl87  1  0.34834035  0.63269054  0.84547283  1
  Cl  Cl88  1  0.12255537  0.91034764  0.10664849  1
  Cl  Cl89  1  0.12957017  0.84889157  0.42130943  1
  Cl  Cl90  1  0.09049719  0.92688563  0.60470806  1
  Cl  Cl91  1  0.13609926  0.85286829  0.92553366  1
  Cl  Cl92  1  0.60095924  0.91686541  0.12733371  1
  Cl  Cl93  1  0.64246750  0.83181637  0.39074335  1
  Cl  Cl94  1  0.57599423  0.90356703  0.61182522  1
  Cl  Cl95  1  0.63151051  0.85926350  0.84455796  1
  Ge  Ge96  1  0.01598548  0.23432629  0.11879546  1
  Ge  Ge97  1  0.00867414  0.24280323  0.37343840  1
  Ge  Ge98  1  0.98055652  0.26379712  0.62726920  1
  Ge  Ge99  1  0.01516858  0.22482150  0.87551331  1
  Ge  Ge100  1  0.51003892  0.24068453  0.13227052  1
  Ge  Ge101  1  0.51257783  0.25566105  0.37209673  1
  Ge  Ge102  1  0.49058560  0.25195762  0.61804896  1
  Ge  Ge103  1  0.50016836  0.26042564  0.87430032  1
  Ge  Ge104  1  0.26020459  0.49199159  0.10339570  1
  Ge  Ge105  1  0.24281993  0.50855797  0.36567376  1
  Ge  Ge106  1  0.24840174  0.50470044  0.62055429  1
  Ge  Ge107  1  0.25077383  0.50266399  0.85885791  1
  Ge  Ge108  1  0.00452830  0.73712454  0.13392938  1
  Ge  Ge109  1  0.00745789  0.75621431  0.37763712  1
  Ge  Ge110  1  0.99123451  0.75400240  0.62465667  1
  Ge  Ge111  1  0.01864033  0.75197289  0.88675919  1
  Ge  Ge112  1  0.76925166  0.49242071  0.13224869  1
  Ge  Ge113  1  0.75492534  0.50687449  0.37687857  1
  Ge  Ge114  1  0.72940453  0.50558968  0.62035151  1
  Ge  Ge115  1  0.76549952  0.49986192  0.87826209  1
  Ge  Ge116  1  0.50693677  0.74732116  0.12619320  1
  Ge  Ge117  1  0.50485719  0.74308766  0.37750418  1
  Ge  Ge118  1  0.48684150  0.76917885  0.62724932  1
  Ge  Ge119  1  0.51346354  0.75179348  0.86931888  1
  Ge  Ge120  1  0.25855842  -0.00013373  0.12930235  1
  Ge  Ge121  1  0.25764682  0.99460712  0.37174620  1
  Ge  Ge122  1  0.23000288  0.00906649  0.61789599  1
  Ge  Ge123  1  0.25517308  0.99655423  0.87705492  1
  Ge  Ge124  1  0.74594203  0.98505791  0.12189800  1
  Ge  Ge125  1  0.74354833  0.01029467  0.37279058  1
  Ge  Ge126  1  0.74997787  0.01045677  0.62610622  1
  Ge  Ge127  1  0.75604173  0.00953996  0.87856531  1
  In  In128  1  0.98680577  0.98435194  0.00154702  1
  In  In129  1  0.03062505  0.96925997  0.23601106  1
  In  In130  1  -0.00509128  -0.00468869  0.48039715  1
  In  In131  1  0.97539200  0.97826704  0.73533567  1
  In  In132  1  0.48611764  0.02400709  0.01725401  1
  In  In133  1  0.49316164  0.99314278  0.27474317  1
  In  In134  1  0.46733088  0.03257324  0.51780416  1
  In  In135  1  0.47424362  0.00381953  0.77159145  1
  In  In136  1  0.26011778  0.26280961  0.98161887  1
  In  In137  1  0.25131172  0.27068106  0.26009818  1
  In  In138  1  0.21737992  0.27544001  0.52403384  1
  In  In139  1  0.24826263  0.24112999  0.75361738  1
  In  In140  1  0.99130844  0.51887447  0.01526617  1
  In  In141  1  0.99404810  0.49073785  0.28310364  1
  In  In142  1  0.96178760  0.52978860  0.51875903  1
  In  In143  1  -0.01539319  0.48274727  0.75502961  1
  In  In144  1  0.73415538  0.26882073  0.99554431  1
  In  In145  1  0.78507306  0.22290204  0.22023793  1
  In  In146  1  0.76886770  0.23092764  0.49196161  1
  In  In147  1  0.74779258  0.26196766  0.79825877  1
  In  In148  1  0.53585658  0.52358219  0.00588719  1
  In  In149  1  0.53423034  0.47280178  0.23191436  1
  In  In150  1  0.49673915  0.49021673  0.47259307  1
  In  In151  1  0.51172926  0.49117694  0.73907715  1
  In  In152  1  0.28303950  0.72433307  0.97836923  1
  In  In153  1  0.26904035  0.72451046  0.22142813  1
  In  In154  1  0.26736866  0.72999499  0.49069561  1
  In  In155  1  0.25190206  0.73609496  0.72893986  1
  In  In156  1  0.76141723  0.75300219  0.95271847  1
  In  In157  1  0.73188528  0.76297639  0.26227172  1
  In  In158  1  0.71673758  0.77433178  0.52628495  1
  In  In159  1  0.75460249  0.73000372  0.75472949  1
