# generated using pymatgen
data_InGeBr3
_symmetry_space_group_name_H-M   'P 1'
_cell_length_a   15.57427717
_cell_length_b   15.57427717
_cell_length_c   22.02535500
_cell_angle_alpha   90.00000000
_cell_angle_beta   90.00000000
_cell_angle_gamma   90.00000000
_symmetry_Int_Tables_number   1
_chemical_formula_structural   InGeBr3
_chemical_formula_sum   'In32 Ge32 Br96'
_cell_volume   5342.42846794
_cell_formula_units_Z   32
loop_
 _symmetry_equiv_pos_site_id
 _symmetry_equiv_pos_as_xyz
  1  'x, y, z'
loop_
 _atom_site_type_symbol
 _atom_site_label
 _atom_site_symmetry_multiplicity
 _atom_site_fract_x
 _atom_site_fract_y
 _atom_site_fract_z
 _atom_site_occupancy
  Br  Br0  1  0.00609139  0.30159491  0.99526596  1
  Br  Br1  1  0.94764809  0.20526373  0.24216696  1
  Br  Br2  1  0.04750376  0.25729712  0.49026644  1
  Br  Br3  1  0.96390329  0.24471520  0.74215708  1
  Br  Br4  1  0.54173550  0.25098503  0.00824253  1
  Br  Br5  1  0.46663162  0.26652584  0.25790939  1
  Br  Br6  1  0.51181836  0.19204248  0.51000432  1
  Br  Br7  1  0.46115488  0.30736664  0.75741745  1
  Br  Br8  1  0.19447240  0.49360254  0.99111124  1
  Br  Br9  1  0.29018012  0.48016921  0.23955487  1
  Br  Br10  1  0.19575179  0.49073108  0.49610523  1
  Br  Br11  1  0.31277108  0.52290413  0.74533229  1
  Br  Br12  1  0.03550820  0.74101773  0.00716410  1
  Br  Br13  1  0.96899649  0.76970744  0.25852807  1
  Br  Br14  1  0.99093155  0.69005852  0.51272562  1
  Br  Br15  1  0.02121484  0.80922152  0.75522417  1
  Br  Br16  1  0.77085104  0.53605368  0.99139309  1
  Br  Br17  1  0.80403910  0.47866810  0.24663772  1
  Br  Br18  1  0.74169861  0.56068627  0.49136708  1
  Br  Br19  1  0.73906616  0.45382609  0.73825617  1
  Br  Br20  1  0.50690031  0.79763695  0.99473003  1
  Br  Br21  1  0.45014292  0.70488331  0.24139050  1
  Br  Br22  1  0.55321804  0.75616691  0.48839216  1
  Br  Br23  1  0.46707250  0.74806221  0.73924934  1
  Br  Br24  1  0.26295835  0.02423306  0.99589141  1
  Br  Br25  1  0.30177363  0.97861663  0.24804363  1
  Br  Br26  1  0.24165498  0.05961447  0.49306048  1
  Br  Br27  1  0.24005016  0.95405390  0.74044767  1
  Br  Br28  1  0.68913337  0.99289143  0.98960797  1
  Br  Br29  1  0.79568211  0.97843390  0.23715950  1
  Br  Br30  1  0.69850237  0.98898217  0.49489046  1
  Br  Br31  1  0.81601255  0.01703073  0.74475647  1
  Br  Br32  1  0.14026087  0.15447612  0.12752491  1
  Br  Br33  1  0.14492588  0.13429753  0.34027613  1
  Br  Br34  1  0.11076547  0.09912090  0.64251749  1
  Br  Br35  1  0.08877753  0.11918997  0.89687880  1
  Br  Br36  1  0.65220047  0.15239380  0.14835718  1
  Br  Br37  1  0.64104616  0.15561887  0.35182097  1
  Br  Br38  1  0.62773019  0.10731971  0.65961294  1
  Br  Br39  1  0.60926258  0.10491706  0.84622245  1
  Br  Br40  1  0.33523615  0.33351325  0.10332688  1
  Br  Br41  1  0.31993131  0.33371221  0.39436626  1
  Br  Br42  1  0.40804835  0.38750345  0.58548454  1
  Br  Br43  1  0.41521251  0.41680710  0.90563173  1
  Br  Br44  1  0.15275929  0.65236471  0.14798991  1
  Br  Br45  1  0.14069200  0.65750467  0.35287317  1
  Br  Br46  1  0.12338689  0.60480403  0.65737951  1
  Br  Br47  1  0.10560149  0.59685216  0.84661388  1
  Br  Br48  1  0.82624926  0.34253336  0.11023815  1
  Br  Br49  1  0.84965637  0.33684246  0.40286028  1
  Br  Br50  1  0.91669173  0.40952871  0.61439074  1
  Br  Br51  1  0.90244321  0.42730393  0.86628880  1
  Br  Br52  1  0.64237555  0.65683022  0.12043331  1
  Br  Br53  1  0.64496298  0.63396868  0.33669994  1
  Br  Br54  1  0.59658212  0.58536884  0.64050889  1
  Br  Br55  1  0.59102932  0.62159873  0.89211275  1
  Br  Br56  1  0.32864005  0.84163384  0.11216981  1
  Br  Br57  1  0.34950122  0.83408508  0.40634748  1
  Br  Br58  1  0.41564762  0.90359960  0.61043081  1
  Br  Br59  1  0.40252330  0.92797557  0.86802389  1
  Br  Br60  1  0.83526397  0.83358606  0.09995752  1
  Br  Br61  1  0.81521441  0.83013441  0.39108798  1
  Br  Br62  1  0.90794539  0.89193154  0.58899830  1
  Br  Br63  1  0.91656613  0.91237607  0.89578822  1
  Br  Br64  1  0.89280881  0.07331590  0.08414456  1
  Br  Br65  1  0.88510469  0.07082179  0.40031001  1
  Br  Br66  1  0.86333176  0.16313821  0.59559604  1
  Br  Br67  1  0.84967099  0.16986301  0.88850616  1
  Br  Br68  1  0.42053680  0.10249577  0.11844955  1
  Br  Br69  1  0.40938106  0.09743749  0.37010102  1
  Br  Br70  1  0.36326838  0.15449737  0.63954453  1
  Br  Br71  1  0.35921775  0.17732334  0.88531623  1
  Br  Br72  1  0.08472384  0.38093545  0.15917125  1
  Br  Br73  1  0.07408985  0.38669174  0.34661565  1
  Br  Br74  1  0.17109076  0.35935124  0.65785758  1
  Br  Br75  1  0.16427405  0.35209896  0.85186745  1
  Br  Br76  1  0.92200261  0.59793893  0.12063006  1
  Br  Br77  1  0.91076904  0.59673915  0.36763469  1
  Br  Br78  1  0.85294374  0.66673998  0.65483734  1
  Br  Br79  1  0.85298586  0.68310631  0.84957070  1
  Br  Br80  1  0.60620552  0.41339466  0.15816371  1
  Br  Br81  1  0.60296760  0.40642355  0.39168777  1
  Br  Br82  1  0.66080849  0.35937203  0.58541440  1
  Br  Br83  1  0.66695259  0.36945804  0.89339842  1
  Br  Br84  1  0.39358343  0.57326333  0.08643143  1
  Br  Br85  1  0.38308678  0.57463957  0.40049899  1
  Br  Br86  1  0.36207117  0.66113287  0.58955888  1
  Br  Br87  1  0.34876031  0.66712562  0.88894355  1
  Br  Br88  1  0.10685088  0.91088836  0.15482465  1
  Br  Br89  1  0.10060486  0.90745621  0.39597921  1
  Br  Br90  1  0.15308872  0.86091905  0.58774392  1
  Br  Br91  1  0.17265163  0.85721766  0.89729330  1
  Br  Br92  1  0.58649006  0.88173654  0.16000588  1
  Br  Br93  1  0.57148483  0.88884761  0.34585457  1
  Br  Br94  1  0.66664751  0.86200248  0.65608612  1
  Br  Br95  1  0.65284081  0.86176229  0.84520195  1
  Ge  Ge96  1  0.00001615  0.24374962  0.13199801  1
  Ge  Ge97  1  0.99038274  0.25130527  0.37842774  1
  Ge  Ge98  1  0.99145236  0.25916013  0.62680247  1
  Ge  Ge99  1  0.99203780  0.25861162  0.88222968  1
  Ge  Ge100  1  0.51094773  0.24124014  0.12564740  1
  Ge  Ge101  1  0.49699496  0.23821528  0.37252462  1
  Ge  Ge102  1  0.49705924  0.25324827  0.61760173  1
  Ge  Ge103  1  0.49028271  0.27662580  0.87195156  1
  Ge  Ge104  1  0.26460084  0.48123338  0.12059058  1
  Ge  Ge105  1  0.24660188  0.48005397  0.38368411  1
  Ge  Ge106  1  0.25186963  0.50295687  0.63642425  1
  Ge  Ge107  1  0.23542577  0.49727459  0.87497739  1
  Ge  Ge108  1  0.01045453  0.73789215  0.12420448  1
  Ge  Ge109  1  0.99572967  0.73895680  0.37237522  1
  Ge  Ge110  1  0.99311213  0.75571133  0.61984980  1
  Ge  Ge111  1  0.99203463  0.77052182  0.86754494  1
  Ge  Ge112  1  0.75250892  0.48651210  0.13654431  1
  Ge  Ge113  1  0.73579945  0.50989867  0.37863440  1
  Ge  Ge114  1  0.73998598  0.49264605  0.62347922  1
  Ge  Ge115  1  0.75556492  0.50547642  0.87619767  1
  Ge  Ge116  1  0.50155026  0.74595433  0.13075736  1
  Ge  Ge117  1  0.49073291  0.75165356  0.37800015  1
  Ge  Ge118  1  0.49007441  0.75415175  0.62060248  1
  Ge  Ge119  1  0.48712438  0.75850466  0.88198094  1
  Ge  Ge120  1  0.25270497  0.98544065  0.13663876  1
  Ge  Ge121  1  0.23451959  0.00834535  0.38113759  1
  Ge  Ge122  1  0.24236155  0.99061941  0.62647865  1
  Ge  Ge123  1  0.25291119  0.99761809  0.87950870  1
  Ge  Ge124  1  0.76422527  0.98079923  0.11963126  1
  Ge  Ge125  1  0.74655045  0.97980580  0.38233639  1
  Ge  Ge126  1  0.75491890  0.00585467  0.63590212  1
  Ge  Ge127  1  0.73346307  0.00179467  0.87506153  1
  In  In128  1  0.04536431  0.96270024  0.00375163  1
  In  In129  1  0.99743194  0.00456225  0.27673019  1
  In  In130  1  0.03000686  0.02811809  0.51201763  1
  In  In131  1  0.02423650  0.01642696  0.76849618  1
  In  In132  1  0.47895586  0.04232979  0.97970010  1
  In  In133  1  0.51301196  0.04104543  0.24619221  1
  In  In134  1  0.48677217  0.97125659  0.47662354  1
  In  In135  1  0.51689108  0.96062814  0.73782347  1
  In  In136  1  0.21130013  0.24058061  0.99109797  1
  In  In137  1  0.24319358  0.27735822  0.23786430  1
  In  In138  1  0.25376079  0.26770015  0.52759533  1
  In  In139  1  0.25352763  0.22338709  0.74943431  1
  In  In140  1  0.98644057  0.52087292  0.98569512  1
  In  In141  1  0.02018286  0.53907758  0.24650552  1
  In  In142  1  0.98460511  0.47190144  0.47743916  1
  In  In143  1  0.95865038  0.52478895  0.73716376  1
  In  In144  1  0.74986567  0.20227503  0.01564509  1
  In  In145  1  0.74849476  0.27791413  0.24542348  1
  In  In146  1  0.72785823  0.21178460  0.48594943  1
  In  In147  1  0.75554910  0.22113116  0.75985975  1
  In  In148  1  0.55343720  0.47385230  0.00510287  1
  In  In149  1  0.49337060  0.50422067  0.27765305  1
  In  In150  1  0.52726545  0.52269588  0.50818142  1
  In  In151  1  0.51232388  0.50464701  0.77283605  1
  In  In152  1  0.24980861  0.70337302  0.01531105  1
  In  In153  1  0.25283057  0.77580942  0.24537142  1
  In  In154  1  0.22003046  0.71471748  0.48771316  1
  In  In155  1  0.22981590  0.72553727  0.76348410  1
  In  In156  1  0.71027027  0.74588669  0.98705151  1
  In  In157  1  0.74667495  0.77622032  0.23577143  1
  In  In158  1  0.76187992  0.76664940  0.52469772  1
  In  In159  1  0.69827625  0.70665562  0.74967097  1
