# generated using pymatgen
data_InGeI3
_symmetry_space_group_name_H-M   'P 1'
_cell_length_a   16.62733170
_cell_length_b   16.62733170
_cell_length_c   23.51459700
_cell_angle_alpha   90.00000000
_cell_angle_beta   90.00000000
_cell_angle_gamma   90.00000000
_symmetry_Int_Tables_number   1
_chemical_formula_structural   InGeI3
_chemical_formula_sum   'In32 Ge32 I96'
_cell_volume   6501.03735517
_cell_formula_units_Z   32
loop_
 _symmetry_equiv_pos_site_id
 _symmetry_equiv_pos_as_xyz
  1  'x, y, z'
loop_
 _atom_site_type_symbol
 _atom_site_label
 _atom_site_symmetry_multiplicity
 _atom_site_fract_x
 _atom_site_fract_y
 _atom_site_fract_z
 _atom_site_occupancy
  Ge  Ge0  1  0.00013218  0.98704591  0.00848477  1
  Ge  Ge1  1  0.00100415  0.00884389  0.26840953  1
  Ge  Ge2  1  0.98973381  0.99984250  0.50283012  1
  Ge  Ge3  1  0.00075813  0.99641187  0.75212454  1
  Ge  Ge4  1  0.50863132  0.99779855  0.00744403  1
  Ge  Ge5  1  0.51386177  0.97442185  0.24744695  1
  Ge  Ge6  1  0.49923695  0.00187097  0.50948612  1
  Ge  Ge7  1  0.49022435  -0.00127663  0.76047132  1
  Ge  Ge8  1  0.26710612  0.25799474  0.00014702  1
  Ge  Ge9  1  0.25438856  0.23423805  0.25004072  1
  Ge  Ge10  1  0.24455497  0.26819784  0.50799239  1
  Ge  Ge11  1  0.22849471  0.24910820  0.74950151  1
  Ge  Ge12  1  0.99576150  0.49053954  0.98767448  1
  Ge  Ge13  1  0.01290763  0.49349004  0.24118873  1
  Ge  Ge14  1  0.99127711  0.49398934  0.49947840  1
  Ge  Ge15  1  0.99019036  0.51376061  0.74303302  1
  Ge  Ge16  1  0.75690840  0.25868280  0.00543103  1
  Ge  Ge17  1  0.74828656  0.25700077  0.24479723  1
  Ge  Ge18  1  0.75078262  0.27332986  0.49612514  1
  Ge  Ge19  1  0.73267468  0.25675461  0.73688571  1
  Ge  Ge20  1  0.51203483  0.47981832  0.99344519  1
  Ge  Ge21  1  0.49067910  0.49641494  0.25110678  1
  Ge  Ge22  1  0.50239811  0.50217096  0.48999628  1
  Ge  Ge23  1  0.49470371  0.49407570  0.74058108  1
  Ge  Ge24  1  0.25439442  0.75567500  0.99265295  1
  Ge  Ge25  1  0.25450789  0.75663883  0.25373490  1
  Ge  Ge26  1  0.24824058  0.77062479  0.50015427  1
  Ge  Ge27  1  0.23671735  0.74946509  0.73474655  1
  Ge  Ge28  1  0.75952875  0.75171614  0.99475481  1
  Ge  Ge29  1  0.74880142  0.75605726  0.25129720  1
  Ge  Ge30  1  0.74586481  0.76744673  0.51171383  1
  Ge  Ge31  1  0.72649693  0.75782731  0.75506309  1
  I  I32  1  0.13928641  0.08892129  0.01378333  1
  I  I33  1  0.12203546  0.14243028  0.21522669  1
  I  I34  1  0.10885334  0.17117693  0.52347022  1
  I  I35  1  0.12918449  0.08774577  0.70947523  1
  I  I36  1  0.64345512  0.08816431  0.97354426  1
  I  I37  1  0.61409626  0.16568663  0.28170955  1
  I  I38  1  0.61143585  0.16867474  0.47075166  1
  I  I39  1  0.63300394  0.08789407  0.78141369  1
  I  I40  1  0.34154722  0.39693432  0.96239434  1
  I  I41  1  0.42105043  0.34817188  0.27481493  1
  I  I42  1  0.42105745  0.35745461  0.46939737  1
  I  I43  1  0.32689710  0.38392087  0.77436462  1
  I  I44  1  0.13116947  0.59259494  0.96297471  1
  I  I45  1  0.11642412  0.66221457  0.28312911  1
  I  I46  1  0.11240218  0.67044693  0.47310395  1
  I  I47  1  0.13545422  0.58704931  0.77588666  1
  I  I48  1  0.83843400  0.39780219  0.03397971  1
  I  I49  1  0.92015286  0.35521844  0.22930570  1
  I  I50  1  0.91467542  0.35327287  0.53331833  1
  I  I51  1  0.82246480  0.39831068  0.72258050  1
  I  I52  1  0.63646912  0.59288406  0.02565801  1
  I  I53  1  0.62693171  0.64842678  0.21755147  1
  I  I54  1  0.60864539  0.67065319  0.53357254  1
  I  I55  1  0.63251716  0.58593177  0.71864444  1
  I  I56  1  0.33679814  0.89784990  0.01814467  1
  I  I57  1  0.43315077  0.83496850  0.22403973  1
  I  I58  1  0.42167909  0.85470040  0.53369027  1
  I  I59  1  0.34324260  0.87619569  0.71135536  1
  I  I60  1  0.83506713  0.89784168  0.96908705  1
  I  I61  1  0.91731594  0.85898323  0.28032020  1
  I  I62  1  0.91607523  0.85665424  0.46989347  1
  I  I63  1  0.82074153  0.89460573  0.77758148  1
  I  I64  1  0.89064771  0.14597987  0.99642752  1
  I  I65  1  0.87068281  0.11212260  0.28872785  1
  I  I66  1  0.86209049  0.10917475  0.47554799  1
  I  I67  1  0.89697465  0.13968442  0.76345275  1
  I  I68  1  0.39172741  0.14890298  0.97203625  1
  I  I69  1  0.36741356  0.10563830  0.24720284  1
  I  I70  1  0.35546015  0.09171833  0.48764848  1
  I  I71  1  0.37357609  0.12259201  0.76581781  1
  I  I72  1  0.08817353  0.34790022  0.99548980  1
  I  I73  1  0.16455626  0.40744043  0.24881104  1
  I  I74  1  0.17192113  0.42043852  0.51596571  1
  I  I75  1  0.08854043  0.34140560  0.71916002  1
  I  I76  1  0.88198470  0.64670880  0.95730154  1
  I  I77  1  0.87395476  0.61916807  0.25139092  1
  I  I78  1  0.84842102  0.58938148  0.48087849  1
  I  I79  1  0.89021502  0.64543210  0.77162097  1
  I  I80  1  0.58087509  0.33039001  0.02106387  1
  I  I81  1  0.66378210  0.40045439  0.21914162  1
  I  I82  1  0.66145846  0.40785509  0.53439257  1
  I  I83  1  0.57573509  0.32115308  0.73147981  1
  I  I84  1  0.38873982  0.64653638  0.98746778  1
  I  I85  1  0.35075193  0.58718116  0.27203864  1
  I  I86  1  0.36698037  0.60719869  0.47771727  1
  I  I87  1  0.39069101  0.62894586  0.76940953  1
  I  I88  1  0.07978014  0.83360552  0.01290308  1
  I  I89  1  0.16738787  0.90108297  0.25066372  1
  I  I90  1  0.16166896  0.90773961  0.53445884  1
  I  I91  1  0.08535726  0.82940031  0.72932596  1
  I  I92  1  0.59271670  0.85017181  0.02711626  1
  I  I93  1  0.67637493  0.92007279  0.23734265  1
  I  I94  1  0.67644204  0.92118158  0.51590537  1
  I  I95  1  0.58898816  0.84046620  0.71713744  1
  I  I96  1  0.97131423  0.97688574  0.12653806  1
  I  I97  1  0.06199624  0.02751699  0.37908050  1
  I  I98  1  0.93553401  0.98503104  0.61787540  1
  I  I99  1  0.03874428  0.99418245  0.86748189  1
  I  I100  1  0.52320386  0.04724105  0.12085777  1
  I  I101  1  0.50777270  0.96761938  0.37053280  1
  I  I102  1  0.51171611  0.05586719  0.62289376  1
  I  I103  1  0.46694921  0.95003251  0.87260511  1
  I  I104  1  0.29338381  0.28720194  0.11539182  1
  I  I105  1  0.23159463  0.22855609  0.36796531  1
  I  I106  1  0.30186174  0.26349062  0.62062390  1
  I  I107  1  0.18662321  0.22033851  0.86441160  1
  I  I108  1  0.03233196  0.52964323  0.12438110  1
  I  I109  1  0.00650626  0.46804748  0.38045010  1
  I  I110  1  0.00181191  0.56195528  0.62786991  1
  I  I111  1  0.96157135  0.44648059  0.87257607  1
  I  I112  1  0.73919910  0.19495306  0.13448180  1
  I  I113  1  0.77935016  0.31925002  0.38251954  1
  I  I114  1  0.74112808  0.19752257  0.62601768  1
  I  I115  1  0.75161243  0.27820052  0.88296084  1
  I  I116  1  0.46003375  0.49231599  0.13088919  1
  I  I117  1  0.55621891  0.52883909  0.37849150  1
  I  I118  1  0.44269753  0.48972833  0.62726383  1
  I  I119  1  0.55582872  0.47211183  0.87875094  1
  I  I120  1  0.23482889  0.72631363  0.13466312  1
  I  I121  1  0.29120972  0.80667599  0.38511007  1
  I  I122  1  0.24074103  0.68731969  0.62418467  1
  I  I123  1  0.24710842  0.79093836  0.87560515  1
  I  I124  1  0.80967957  0.75587272  0.11141716  1
  I  I125  1  0.72165673  0.74073503  0.36753227  1
  I  I126  1  0.80267747  0.75940654  0.62317885  1
  I  I127  1  0.67610044  0.72861655  0.86847329  1
  In  In128  1  0.07152228  0.30956331  0.13929214  1
  In  In129  1  0.97276175  0.22408249  0.38991285  1
  In  In130  1  0.98024819  0.19808213  0.63578396  1
  In  In131  1  0.98007037  0.23610976  0.88394587  1
  In  In132  1  0.52701496  0.25782739  0.16261833  1
  In  In133  1  0.45007189  0.19749321  0.37475059  1
  In  In134  1  0.52205636  0.27152736  0.58810999  1
  In  In135  1  0.54783846  0.26192163  0.88110082  1
  In  In136  1  0.25751134  0.51910555  0.14409699  1
  In  In137  1  0.20499591  0.53066440  0.38529971  1
  In  In138  1  0.23234761  0.47174040  0.65909148  1
  In  In139  1  0.17957468  0.43249948  0.87454877  1
  In  In140  1  0.00566773  0.76734597  0.16690933  1
  In  In141  1  0.95686679  0.70382841  0.37475017  1
  In  In142  1  0.01712902  0.78023900  0.59311345  1
  In  In143  1  0.04405916  0.73521877  0.87436846  1
  In  In144  1  0.76679504  0.54785079  0.13305167  1
  In  In145  1  0.75659458  0.52413775  0.35550112  1
  In  In146  1  0.78319264  0.54135343  0.61865305  1
  In  In147  1  0.76778294  0.53734728  0.85665146  1
  In  In148  1  0.49568535  0.70016226  0.10698290  1
  In  In149  1  0.49029926  0.74335733  0.41786518  1
  In  In150  1  0.46033887  0.70848475  0.64257809  1
  In  In151  1  0.46630921  0.74514054  0.87377894  1
  In  In152  1  0.18596510  0.94977448  0.11028724  1
  In  In153  1  0.26899355  0.01263583  0.36045111  1
  In  In154  1  0.30176248  0.04525968  0.63211632  1
  In  In155  1  0.26580453  0.02593463  0.89701686  1
  In  In156  1  0.72542052  0.98367904  0.08954363  1
  In  In157  1  0.70538299  0.03075485  0.38087377  1
  In  In158  1  0.72387560  0.98576617  0.66114903  1
  In  In159  1  0.79143593  0.05230473  0.87483338  1
