# generated using pymatgen
data_InHgI3
_symmetry_space_group_name_H-M   'P 1'
_cell_length_a   16.92361510
_cell_length_b   16.92361510
_cell_length_c   23.93360700
_cell_angle_alpha   90.00000000
_cell_angle_beta   90.00000000
_cell_angle_gamma   90.00000000
_symmetry_Int_Tables_number   1
_chemical_formula_structural   InHgI3
_chemical_formula_sum   'In32 Hg32 I96'
_cell_volume   6854.79441795
_cell_formula_units_Z   32
loop_
 _symmetry_equiv_pos_site_id
 _symmetry_equiv_pos_as_xyz
  1  'x, y, z'
loop_
 _atom_site_type_symbol
 _atom_site_label
 _atom_site_symmetry_multiplicity
 _atom_site_fract_x
 _atom_site_fract_y
 _atom_site_fract_z
 _atom_site_occupancy
  In  In0  1  0.99664363  0.06236475  0.93739268  1
  In  In1  1  0.02310594  0.05508229  0.30100200  1
  In  In2  1  0.02380132  0.93127660  0.52757628  1
  In  In3  1  0.91504502  0.06496938  0.71262326  1
  In  In4  1  0.54034316  0.00720194  0.97386376  1
  In  In5  1  0.45979191  0.95311750  0.27472810  1
  In  In6  1  0.45827776  0.92448331  0.48305440  1
  In  In7  1  0.47950525  0.03695598  0.75073895  1
  In  In8  1  0.21783562  0.23311857  0.91530104  1
  In  In9  1  0.36136320  0.17405244  0.23598367  1
  In  In10  1  0.28224138  0.30760039  0.44672370  1
  In  In11  1  0.22661760  0.35190473  0.79083960  1
  In  In12  1  0.02297431  0.43967876  0.02545568  1
  In  In13  1  0.08363129  0.43581760  0.23413455  1
  In  In14  1  0.06905482  0.51661724  0.47354518  1
  In  In15  1  0.95465918  0.51964060  0.82103352  1
  In  In16  1  0.81646568  0.26499908  0.03002583  1
  In  In17  1  0.76683491  0.23810087  0.30263351  1
  In  In18  1  0.69343746  0.20761777  0.52452768  1
  In  In19  1  0.71333069  0.23285876  0.76931447  1
  In  In20  1  0.44145333  0.41565927  0.99629229  1
  In  In21  1  0.48038727  0.47706169  0.25367650  1
  In  In22  1  0.47025402  0.51957022  0.53329540  1
  In  In23  1  0.56629113  0.46907444  0.76471413  1
  In  In24  1  0.35138910  0.80363154  0.98184657  1
  In  In25  1  0.29159930  0.76100995  0.17319583  1
  In  In26  1  0.23741599  0.68977123  0.55365146  1
  In  In27  1  0.17123163  0.74650864  0.75385427  1
  In  In28  1  0.74374384  0.72560810  0.02514318  1
  In  In29  1  0.81232631  0.69640331  0.25449660  1
  In  In30  1  0.77996208  0.68104085  0.48466690  1
  In  In31  1  0.67288416  0.71927194  0.73151482  1
  Hg  Hg32  1  0.07581519  0.22738086  0.12369527  1
  Hg  Hg33  1  0.01611277  0.25350460  0.40771307  1
  Hg  Hg34  1  0.96773308  0.31475192  0.63765214  1
  Hg  Hg35  1  0.95764302  0.26785039  0.84655411  1
  Hg  Hg36  1  0.55515934  0.21967830  0.12797957  1
  Hg  Hg37  1  0.54150430  0.29035893  0.39145545  1
  Hg  Hg38  1  0.45182912  0.18172564  0.59238069  1
  Hg  Hg39  1  0.44614516  0.23199687  0.87316266  1
  Hg  Hg40  1  0.28372986  0.53708206  0.10564761  1
  Hg  Hg41  1  0.27972075  0.55303713  0.39734806  1
  Hg  Hg42  1  0.23523781  0.49369352  0.65447007  1
  Hg  Hg43  1  0.18237973  0.61756190  0.90204538  1
  Hg  Hg44  1  0.05220522  0.78233472  0.11415711  1
  Hg  Hg45  1  0.03564960  0.77362090  0.31015683  1
  Hg  Hg46  1  0.98651358  0.74457643  0.63320209  1
  Hg  Hg47  1  0.98035762  0.78804966  0.92288139  1
  Hg  Hg48  1  0.78956541  0.48720180  0.13166104  1
  Hg  Hg49  1  0.76960238  0.43794081  0.42238684  1
  Hg  Hg50  1  0.76202808  0.48949114  0.62095194  1
  Hg  Hg51  1  0.71619215  0.49274187  0.89964009  1
  Hg  Hg52  1  0.52437852  0.74674658  0.14402519  1
  Hg  Hg53  1  0.52238645  0.74081600  0.35696846  1
  Hg  Hg54  1  0.46515300  0.72424368  0.63420029  1
  Hg  Hg55  1  0.53251411  0.80594357  0.86548774  1
  Hg  Hg56  1  0.21263893  0.00694062  0.15248421  1
  Hg  Hg57  1  0.25727571  0.05872044  0.40179217  1
  Hg  Hg58  1  0.22517607  0.03926506  0.61915904  1
  Hg  Hg59  1  0.22155086  0.01255892  0.84840553  1
  Hg  Hg60  1  0.74686230  0.02444792  0.18406535  1
  Hg  Hg61  1  0.76639591  0.94041409  0.39782690  1
  Hg  Hg62  1  0.72558544  0.94524088  0.59855646  1
  Hg  Hg63  1  0.78608122  0.90870201  0.88903324  1
  I  I64  1  0.06267395  0.23389276  0.00492221  1
  I  I65  1  0.98316501  0.28042063  0.29601754  1
  I  I66  1  0.09445049  0.31497326  0.49909245  1
  I  I67  1  0.88178314  0.34606923  0.75410387  1
  I  I68  1  0.39450375  0.22734385  0.98743447  1
  I  I69  1  0.57761297  0.12969168  0.22572600  1
  I  I70  1  0.49969744  0.32141466  0.50608049  1
  I  I71  1  0.51151378  0.22473960  0.69933413  1
  I  I72  1  0.24360799  0.44055658  0.01605112  1
  I  I73  1  0.28115684  0.51114128  0.21919202  1
  I  I74  1  0.27431150  0.47995489  0.51673474  1
  I  I75  1  0.16264258  0.54358810  0.78799175  1
  I  I76  1  0.94124712  0.84772214  0.03220201  1
  I  I77  1  0.00993939  0.62807189  0.27003801  1
  I  I78  1  0.98033932  0.71772071  0.51938045  1
  I  I79  1  0.97524038  0.71369367  0.74533176  1
  I  I80  1  0.63081274  0.58025222  0.97491830  1
  I  I81  1  0.81502737  0.49684084  0.24545953  1
  I  I82  1  0.67025751  0.50362234  0.50645098  1
  I  I83  1  0.74911852  0.54979181  0.78889938  1
  I  I84  1  0.55106502  0.80253056  0.98453180  1
  I  I85  1  0.44852763  0.68186370  0.24414954  1
  I  I86  1  0.43540404  0.72167319  0.51735342  1
  I  I87  1  0.53063574  0.85286107  0.68868897  1
  I  I88  1  0.22107391  0.04623849  0.95876204  1
  I  I89  1  0.25618823  0.93175644  0.25342133  1
  I  I90  1  0.23592319  0.95515240  0.48723709  1
  I  I91  1  0.17474646  0.94859759  0.75171351  1
  I  I92  1  0.73944210  0.97296036  0.98928254  1
  I  I93  1  0.82170505  0.04413511  0.30873167  1
  I  I94  1  0.79424185  0.03148920  0.49651813  1
  I  I95  1  0.71146833  0.05008021  0.68715052  1
  I  I96  1  0.05315156  0.06293274  0.14638183  1
  I  I97  1  0.19388945  0.16964608  0.33222569  1
  I  I98  1  0.07476892  0.08878623  0.61056916  1
  I  I99  1  0.07476319  0.14645486  0.82303721  1
  I  I100  1  0.63201497  0.16653648  0.03436699  1
  I  I101  1  0.63697961  0.15598136  0.39218482  1
  I  I102  1  0.55672228  0.07067664  0.54912684  1
  I  I103  1  0.57443954  0.12662541  0.86055260  1
  I  I104  1  0.43943952  0.33243103  0.14462530  1
  I  I105  1  0.40598523  0.32037082  0.32474174  1
  I  I106  1  0.35791830  0.40229083  0.68420588  1
  I  I107  1  0.40317595  0.39443545  0.85761962  1
  I  I108  1  0.11898525  0.63089906  0.11058176  1
  I  I109  1  0.17846356  0.67901310  0.41148467  1
  I  I110  1  0.10142152  0.56592376  0.61932665  1
  I  I111  1  0.03317046  0.60373299  0.94466553  1
  I  I112  1  0.94478473  0.34051933  0.13945932  1
  I  I113  1  0.83346177  0.28453196  0.43616311  1
  I  I114  1  0.91137780  0.43969875  0.56774842  1
  I  I115  1  0.86062662  0.42527542  0.94357158  1
  I  I116  1  0.65747930  0.65470121  0.14488301  1
  I  I117  1  0.65654119  0.65507796  0.35723618  1
  I  I118  1  0.57021622  0.59002566  0.65065513  1
  I  I119  1  0.52392195  0.66044732  0.81346218  1
  I  I120  1  0.44087180  0.88263014  0.12386176  1
  I  I121  1  0.38266848  0.81971860  0.37113082  1
  I  I122  1  0.36446143  0.96925732  0.63867848  1
  I  I123  1  0.40214158  0.91675733  0.86476361  1
  I  I124  1  0.96837173  0.85412739  0.20253607  1
  I  I125  1  0.85493509  0.80064369  0.37937477  1
  I  I126  1  0.89383797  0.90351883  0.63721567  1
  I  I127  1  0.92902098  0.94173225  0.83477747  1
  I  I128  1  0.82368250  0.15765708  0.15743539  1
  I  I129  1  0.00674786  0.08838355  0.43341625  1
  I  I130  1  0.87484556  0.18621903  0.60563129  1
  I  I131  1  0.83865347  0.17263299  0.89411792  1
  I  I132  1  0.33560282  0.09165436  0.10563748  1
  I  I133  1  0.42242515  0.07442489  0.37958934  1
  I  I134  1  0.29349396  0.20611674  0.57291388  1
  I  I135  1  0.32687402  0.15246278  0.80041526  1
  I  I136  1  0.20027555  0.29365893  0.18303089  1
  I  I137  1  0.17806757  0.42863025  0.35588022  1
  I  I138  1  0.12076988  0.31893585  0.67593298  1
  I  I139  1  0.06976970  0.38265824  0.88258811  1
  I  I140  1  0.88089797  0.59614335  0.07308761  1
  I  I141  1  0.88427218  0.55092674  0.39795840  1
  I  I142  1  0.80209942  0.64693996  0.63124798  1
  I  I143  1  0.83138315  0.73019820  0.88970915  1
  I  I144  1  0.68258761  0.38364257  0.08628192  1
  I  I145  1  0.64478265  0.40647664  0.33725893  1
  I  I146  1  0.67321951  0.36675475  0.66157399  1
  I  I147  1  0.64132997  0.34556854  0.86708188  1
  I  I148  1  0.40265354  0.64363410  0.06797877  1
  I  I149  1  0.44180231  0.54608870  0.38731716  1
  I  I150  1  0.32241093  0.66396735  0.68233003  1
  I  I151  1  0.33933011  0.64183012  0.89931650  1
  I  I152  1  0.19292530  0.86918316  0.07493717  1
  I  I153  1  0.08603751  0.89231629  0.37434014  1
  I  I154  1  0.14280249  0.83614618  0.62253279  1
  I  I155  1  0.13708619  0.81191836  0.89571946  1
  I  I156  1  0.69633756  0.87567027  0.18131613  1
  I  I157  1  0.60323187  0.91307446  0.37625903  1
  I  I158  1  0.65484843  0.82486342  0.54158771  1
  I  I159  1  0.65493098  0.90440276  0.81450279  1
