# generated using pymatgen
data_MgInF3
_symmetry_space_group_name_H-M   'P 1'
_cell_length_a   11.62986867
_cell_length_b   11.62986867
_cell_length_c   16.44711800
_cell_angle_alpha   90.00000000
_cell_angle_beta   90.00000000
_cell_angle_gamma   90.00000000
_symmetry_Int_Tables_number   1
_chemical_formula_structural   MgInF3
_chemical_formula_sum   'Mg32 In32 F96'
_cell_volume   2224.53595283
_cell_formula_units_Z   32
loop_
 _symmetry_equiv_pos_site_id
 _symmetry_equiv_pos_as_xyz
  1  'x, y, z'
loop_
 _atom_site_type_symbol
 _atom_site_label
 _atom_site_symmetry_multiplicity
 _atom_site_fract_x
 _atom_site_fract_y
 _atom_site_fract_z
 _atom_site_occupancy
  F  F0  1  0.99975383  0.25016964  0.00044010  1
  F  F1  1  0.99996727  0.25003687  0.25039436  1
  F  F2  1  0.00007803  0.25028390  0.50048691  1
  F  F3  1  -0.00036560  0.25015830  0.75042069  1
  F  F4  1  0.49979838  0.25034105  0.00045250  1
  F  F5  1  0.49985047  0.25019754  0.25047022  1
  F  F6  1  0.50005786  0.25043379  0.50048593  1
  F  F7  1  0.49966913  0.25024629  0.75049815  1
  F  F8  1  0.24974448  0.50029120  0.00044004  1
  F  F9  1  0.25014236  0.50025830  0.25046193  1
  F  F10  1  0.25001294  0.50039283  0.50045939  1
  F  F11  1  0.24988245  0.50037165  0.75048436  1
  F  F12  1  -0.00004428  0.75019492  0.00045840  1
  F  F13  1  0.00008870  0.75006511  0.25044060  1
  F  F14  1  0.00019603  0.75015978  0.50045961  1
  F  F15  1  0.99983978  0.75024868  0.75045196  1
  F  F16  1  0.74976105  0.50012854  0.00044071  1
  F  F17  1  0.74998260  0.50008137  0.25045136  1
  F  F18  1  0.75010032  0.50030616  0.50045474  1
  F  F19  1  0.74983499  0.50010482  0.75046284  1
  F  F20  1  0.49998657  0.75036449  0.00048986  1
  F  F21  1  0.50014708  0.75019464  0.25051587  1
  F  F22  1  0.50013200  0.75040277  0.50049851  1
  F  F23  1  0.49977675  0.75037782  0.75048387  1
  F  F24  1  0.24975427  0.00035123  0.00047158  1
  F  F25  1  0.25005924  0.00019713  0.25048386  1
  F  F26  1  0.24990145  0.00031244  0.50048349  1
  F  F27  1  0.24996312  0.00029244  0.75046328  1
  F  F28  1  0.74981339  0.00013676  0.00049422  1
  F  F29  1  0.75008296  0.00002655  0.25048399  1
  F  F30  1  0.74994396  0.00030400  0.50048362  1
  F  F31  1  0.74985363  0.00024807  0.75045280  1
  F  F32  1  0.12514555  0.12488625  0.12530470  1
  F  F33  1  0.12511376  0.12503584  0.37536182  1
  F  F34  1  0.12493840  0.12534825  0.62536416  1
  F  F35  1  0.12477885  0.12499073  0.87525331  1
  F  F36  1  0.62516076  0.12495641  0.12528861  1
  F  F37  1  0.62516101  0.12512838  0.37531578  1
  F  F38  1  0.62481683  0.12529992  0.62526546  1
  F  F39  1  0.62476815  0.12509311  0.87534554  1
  F  F40  1  0.37505975  0.37488996  0.12529616  1
  F  F41  1  0.37530244  0.37528845  0.37539644  1
  F  F42  1  0.37485881  0.37526612  0.62532551  1
  F  F43  1  0.37474632  0.37508757  0.87530662  1
  F  F44  1  0.12532083  0.62494107  0.12531135  1
  F  F45  1  0.12541896  0.62519103  0.37523589  1
  F  F46  1  0.12499690  0.62528214  0.62529975  1
  F  F47  1  0.12491954  0.62509232  0.87527894  1
  F  F48  1  0.87509463  0.37501196  0.12530577  1
  F  F49  1  0.87513584  0.37501426  0.37527226  1
  F  F50  1  0.87467102  0.37520906  0.62529745  1
  F  F51  1  0.87463172  0.37489937  0.87528661  1
  F  F52  1  0.62519752  0.62499007  0.12528020  1
  F  F53  1  0.62539330  0.62517315  0.37532135  1
  F  F54  1  0.62508039  0.62535704  0.62534739  1
  F  F55  1  0.62491326  0.62511785  0.87532445  1
  F  F56  1  0.37531756  0.87501003  0.12527007  1
  F  F57  1  0.37539784  0.87524567  0.37528338  1
  F  F58  1  0.37494949  0.87516486  0.62523367  1
  F  F59  1  0.37490666  0.87508978  0.87535201  1
  F  F60  1  0.87523746  0.87490054  0.12530925  1
  F  F61  1  0.87532331  0.87503697  0.37536290  1
  F  F62  1  0.87496533  0.87523462  0.62533741  1
  F  F63  1  0.87480899  0.87490236  0.87530182  1
  F  F64  1  0.87498733  0.12504966  0.12529107  1
  F  F65  1  0.87509326  0.12506964  0.37528488  1
  F  F66  1  0.87475452  0.12509544  0.62522764  1
  F  F67  1  0.87459827  0.12497260  0.87535475  1
  F  F68  1  0.37498543  0.12497610  0.12530160  1
  F  F69  1  0.37492069  0.12528481  0.37536691  1
  F  F70  1  0.37467124  0.12522102  0.62530698  1
  F  F71  1  0.37455387  0.12506480  0.87538287  1
  F  F72  1  0.12495333  0.37495434  0.12534642  1
  F  F73  1  0.12492562  0.37526751  0.37531492  1
  F  F74  1  0.12460207  0.37529879  0.62528824  1
  F  F75  1  0.12446418  0.37508801  0.87529193  1
  F  F76  1  0.87507620  0.62500715  0.12527037  1
  F  F77  1  0.87525719  0.62508660  0.37532242  1
  F  F78  1  0.87485195  0.62526647  0.62536428  1
  F  F79  1  0.87490445  0.62482128  0.87534218  1
  F  F80  1  0.62489312  0.37507258  0.12526434  1
  F  F81  1  0.62508616  0.37514044  0.37527421  1
  F  F82  1  0.62454063  0.37526657  0.62533171  1
  F  F83  1  0.62451013  0.37511469  0.87524478  1
  F  F84  1  0.37504704  0.62513296  0.12525661  1
  F  F85  1  0.37520474  0.62522130  0.37532710  1
  F  F86  1  0.37481378  0.62518356  0.62534366  1
  F  F87  1  0.37471469  0.62517282  0.87535498  1
  F  F88  1  0.12504500  0.87506934  0.12531236  1
  F  F89  1  0.12522446  0.87508996  0.37524860  1
  F  F90  1  0.12478167  0.87521085  0.62529761  1
  F  F91  1  0.12463438  0.87517832  0.87536293  1
  F  F92  1  0.62511684  0.87503666  0.12534429  1
  F  F93  1  0.62508947  0.87525812  0.37529364  1
  F  F94  1  0.62476275  0.87532045  0.62536559  1
  F  F95  1  0.62464287  0.87517323  0.87531890  1
  In  In96  1  0.00060162  0.99893482  0.00081574  1
  In  In97  1  0.00122247  -0.00030881  0.25082412  1
  In  In98  1  -0.00021531  -0.00013623  0.50099563  1
  In  In99  1  0.99914015  0.99929148  0.75083081  1
  In  In100  1  0.50000924  0.99893413  0.00098022  1
  In  In101  1  0.50087292  0.99919797  0.25110692  1
  In  In102  1  0.50052528  0.99946734  0.50093698  1
  In  In103  1  0.49931864  0.99967792  0.75105935  1
  In  In104  1  0.24968904  0.24892672  0.00079882  1
  In  In105  1  0.25127481  0.24933758  0.25058372  1
  In  In106  1  0.24943272  0.24921919  0.50088369  1
  In  In107  1  0.24892766  0.24928491  0.75072137  1
  In  In108  1  0.99966762  0.49909008  0.00087963  1
  In  In109  1  0.00101618  0.49919981  0.25080432  1
  In  In110  1  0.00037173  0.49937884  0.50092139  1
  In  In111  1  0.99903614  0.50005101  0.75099492  1
  In  In112  1  0.75009033  0.24872533  0.00085532  1
  In  In113  1  0.75069442  0.24952961  0.25097908  1
  In  In114  1  0.74945780  0.25004100  0.50090108  1
  In  In115  1  0.74894112  0.24997165  0.75095550  1
  In  In116  1  0.50044178  0.49888021  0.00095125  1
  In  In117  1  0.50104009  0.49972109  0.25102422  1
  In  In118  1  0.49948589  0.49946537  0.50099258  1
  In  In119  1  0.49913660  0.49930240  0.75102754  1
  In  In120  1  0.25056001  0.74862748  0.00088040  1
  In  In121  1  0.25099898  0.74923773  0.25108054  1
  In  In122  1  0.25003808  0.74989431  0.50091543  1
  In  In123  1  0.25008456  0.74920088  0.75095003  1
  In  In124  1  0.75038678  0.74934257  0.00102391  1
  In  In125  1  0.75138021  0.74980924  0.25083632  1
  In  In126  1  0.75067636  0.74920983  0.50081648  1
  In  In127  1  0.74928170  0.74987174  0.75082301  1
  Mg  Mg128  1  0.00007916  0.24979856  0.12554759  1
  Mg  Mg129  1  0.00010006  0.24995974  0.37550198  1
  Mg  Mg130  1  -0.00045050  0.25013413  0.62563454  1
  Mg  Mg131  1  0.99958073  0.24980762  0.87550798  1
  Mg  Mg132  1  0.50011295  0.24979481  0.12553933  1
  Mg  Mg133  1  0.50008158  0.25001786  0.37559850  1
  Mg  Mg134  1  0.49958993  0.25004850  0.62555132  1
  Mg  Mg135  1  0.49957151  0.24982804  0.87560057  1
  Mg  Mg136  1  0.25020286  0.49976424  0.12553169  1
  Mg  Mg137  1  0.25025685  0.49994477  0.37555638  1
  Mg  Mg138  1  0.24971937  0.50001583  0.62557895  1
  Mg  Mg139  1  0.24962841  0.49977913  0.87556391  1
  Mg  Mg140  1  0.00036620  0.74976947  0.12553111  1
  Mg  Mg141  1  0.00037795  0.74999633  0.37556121  1
  Mg  Mg142  1  -0.00000213  0.75005852  0.62556026  1
  Mg  Mg143  1  -0.00010593  0.74993654  0.87557437  1
  Mg  Mg144  1  0.75014934  0.49983147  0.12561612  1
  Mg  Mg145  1  0.75025678  0.50006655  0.37550310  1
  Mg  Mg146  1  0.74970077  0.50015568  0.62556291  1
  Mg  Mg147  1  0.74970321  0.49992986  0.87557761  1
  Mg  Mg148  1  0.50027814  0.74981956  0.12556582  1
  Mg  Mg149  1  0.50040788  0.75002124  0.37564908  1
  Mg  Mg150  1  0.49997843  0.75004411  0.62552723  1
  Mg  Mg151  1  0.49988826  0.74987779  0.87558525  1
  Mg  Mg152  1  0.25026359  0.99969666  0.12553586  1
  Mg  Mg153  1  0.25022989  -0.00005863  0.37557635  1
  Mg  Mg154  1  0.24983088  -0.00003856  0.62557117  1
  Mg  Mg155  1  0.24975718  -0.00018267  0.87552734  1
  Mg  Mg156  1  0.75022230  0.99992980  0.12556093  1
  Mg  Mg157  1  0.75032859  -0.00002565  0.37557726  1
  Mg  Mg158  1  0.74979164  0.00017767  0.62557048  1
  Mg  Mg159  1  0.74973870  -0.00008340  0.87556492  1
