# generated using pymatgen
data_MgInCl3
_symmetry_space_group_name_H-M   'P 1'
_cell_length_a   14.17838475
_cell_length_b   14.17838475
_cell_length_c   20.05126300
_cell_angle_alpha   90.00000000
_cell_angle_beta   90.00000000
_cell_angle_gamma   90.00000000
_symmetry_Int_Tables_number   1
_chemical_formula_structural   MgInCl3
_chemical_formula_sum   'Mg32 In32 Cl96'
_cell_volume   4030.83710627
_cell_formula_units_Z   32
loop_
 _symmetry_equiv_pos_site_id
 _symmetry_equiv_pos_as_xyz
  1  'x, y, z'
loop_
 _atom_site_type_symbol
 _atom_site_label
 _atom_site_symmetry_multiplicity
 _atom_site_fract_x
 _atom_site_fract_y
 _atom_site_fract_z
 _atom_site_occupancy
  Cl  Cl0  1  0.00017492  0.27675544  0.99952113  1
  Cl  Cl1  1  0.00235968  0.22090121  0.24998970  1
  Cl  Cl2  1  0.99711931  0.27918013  0.49919265  1
  Cl  Cl3  1  0.00099478  0.22225511  0.74923860  1
  Cl  Cl4  1  0.52926023  0.24852341  0.99946806  1
  Cl  Cl5  1  0.47155526  0.25028094  0.24969376  1
  Cl  Cl6  1  0.52865150  0.24963351  0.49974648  1
  Cl  Cl7  1  0.47054364  0.25045237  0.75001540  1
  Cl  Cl8  1  0.22323232  0.49969440  0.99954069  1
  Cl  Cl9  1  0.27879527  0.49751195  0.25005875  1
  Cl  Cl10  1  0.22047680  0.50278046  0.49919008  1
  Cl  Cl11  1  0.27757587  0.49904560  0.74917913  1
  Cl  Cl12  1  0.02917381  0.74845158  0.99946045  1
  Cl  Cl13  1  0.97163945  0.75031444  0.24967401  1
  Cl  Cl14  1  0.02864877  0.74981259  0.49973588  1
  Cl  Cl15  1  0.97039580  0.75058244  0.75002000  1
  Cl  Cl16  1  0.75124149  0.47079756  0.99947686  1
  Cl  Cl17  1  0.74968326  0.52831651  0.24973694  1
  Cl  Cl18  1  0.75045172  0.47119176  0.49974325  1
  Cl  Cl19  1  0.74936095  0.52957725  0.75000066  1
  Cl  Cl20  1  0.50009622  0.77631399  0.99964777  1
  Cl  Cl21  1  0.50226347  0.72085837  0.25002688  1
  Cl  Cl22  1  0.49691507  0.77937766  0.49910676  1
  Cl  Cl23  1  0.50100307  0.72237394  0.74924775  1
  Cl  Cl24  1  0.25148895  0.97081510  0.99947184  1
  Cl  Cl25  1  0.24965203  0.02844188  0.24965410  1
  Cl  Cl26  1  0.25036789  0.97127563  0.49975159  1
  Cl  Cl27  1  0.24939422  0.02942137  0.75001425  1
  Cl  Cl28  1  0.72353474  0.99990986  0.99957943  1
  Cl  Cl29  1  0.77912996  0.99793010  0.25000487  1
  Cl  Cl30  1  0.72066655  0.00274402  0.49910033  1
  Cl  Cl31  1  0.77729612  0.99872308  0.74922158  1
  Cl  Cl32  1  0.11754144  0.11521455  0.10990706  1
  Cl  Cl33  1  0.13942927  0.13937582  0.39010296  1
  Cl  Cl34  1  0.12210580  0.12346541  0.60879651  1
  Cl  Cl35  1  0.11246249  0.11163168  0.88801738  1
  Cl  Cl36  1  0.61727420  0.11510869  0.13979337  1
  Cl  Cl37  1  0.63937295  0.13957927  0.35950374  1
  Cl  Cl38  1  0.62222634  0.12388516  0.63989469  1
  Cl  Cl39  1  0.61234202  0.11170589  0.86050138  1
  Cl  Cl40  1  0.38458270  0.38227574  0.10998683  1
  Cl  Cl41  1  0.36056009  0.36056334  0.39019587  1
  Cl  Cl42  1  0.37635920  0.37784073  0.60883305  1
  Cl  Cl43  1  0.38866984  0.38770089  0.88787656  1
  Cl  Cl44  1  0.11706070  0.61490824  0.13960118  1
  Cl  Cl45  1  0.13919838  0.63951668  0.35939391  1
  Cl  Cl46  1  0.12207166  0.62379949  0.63997697  1
  Cl  Cl47  1  0.11226824  0.61173727  0.86038611  1
  Cl  Cl48  1  0.88490395  0.38284345  0.13964405  1
  Cl  Cl49  1  0.86040662  0.36055288  0.35935321  1
  Cl  Cl50  1  0.87607170  0.37769529  0.64013043  1
  Cl  Cl51  1  0.88828304  0.38772232  0.86053455  1
  Cl  Cl52  1  0.61752036  0.61529431  0.11003771  1
  Cl  Cl53  1  0.63932477  0.63933299  0.39011473  1
  Cl  Cl54  1  0.62202629  0.62355727  0.60871408  1
  Cl  Cl55  1  0.61218344  0.61131091  0.88794686  1
  Cl  Cl56  1  0.38494782  0.88272540  0.13975500  1
  Cl  Cl57  1  0.36031888  0.86057616  0.35929214  1
  Cl  Cl58  1  0.37590039  0.87767376  0.64013177  1
  Cl  Cl59  1  0.38822007  0.88767210  0.86058154  1
  Cl  Cl60  1  0.88475049  0.88253221  0.10996330  1
  Cl  Cl61  1  0.86049504  0.86054899  0.39008162  1
  Cl  Cl62  1  0.87611136  0.87772934  0.60885018  1
  Cl  Cl63  1  0.88830063  0.88740050  0.88799178  1
  Cl  Cl64  1  0.86778646  0.13228891  0.11271749  1
  Cl  Cl65  1  0.88828237  0.11160162  0.39049094  1
  Cl  Cl66  1  0.87040100  0.12945825  0.60993904  1
  Cl  Cl67  1  0.86212015  0.13784782  0.88526597  1
  Cl  Cl68  1  0.36829787  0.13166415  0.10754958  1
  Cl  Cl69  1  0.39030514  0.10958776  0.38651085  1
  Cl  Cl70  1  0.37210741  0.12783884  0.61117386  1
  Cl  Cl71  1  0.36346027  0.13656275  0.89151460  1
  Cl  Cl72  1  0.13770177  0.36217240  0.13747767  1
  Cl  Cl73  1  0.11163413  0.38815528  0.36013629  1
  Cl  Cl74  1  0.12583537  0.37399988  0.63654787  1
  Cl  Cl75  1  0.14011731  0.35992727  0.86281346  1
  Cl  Cl76  1  0.86795508  0.63196688  0.10777028  1
  Cl  Cl77  1  0.89026592  0.60966736  0.38653540  1
  Cl  Cl78  1  0.87201808  0.62786127  0.61109201  1
  Cl  Cl79  1  0.86334689  0.63656619  0.89156646  1
  Cl  Cl80  1  0.63439327  0.36554716  0.13872196  1
  Cl  Cl81  1  0.60813367  0.39175678  0.36298906  1
  Cl  Cl82  1  0.62486682  0.37513194  0.64164340  1
  Cl  Cl83  1  0.63783761  0.36213395  0.85892519  1
  Cl  Cl84  1  0.36770776  0.63203759  0.11288394  1
  Cl  Cl85  1  0.38816688  0.61165361  0.39043211  1
  Cl  Cl86  1  0.37013334  0.62968132  0.60976030  1
  Cl  Cl87  1  0.36196267  0.63793257  0.88539989  1
  Cl  Cl88  1  0.13455138  0.86540607  0.13863880  1
  Cl  Cl89  1  0.10824296  0.89170359  0.36300154  1
  Cl  Cl90  1  0.12462074  0.87516763  0.64159889  1
  Cl  Cl91  1  0.13765355  0.86227287  0.85897740  1
  Cl  Cl92  1  0.63778120  0.86230272  0.13755751  1
  Cl  Cl93  1  0.61163844  0.88825398  0.35996321  1
  Cl  Cl94  1  0.62557992  0.87411833  0.63637995  1
  Cl  Cl95  1  0.63988792  0.85992559  0.86306590  1
  In  In96  1  0.00568578  0.99437476  0.00107532  1
  In  In97  1  0.00734292  0.99260416  0.23914188  1
  In  In98  1  0.01242624  0.98680877  0.49700471  1
  In  In99  1  0.01028749  0.98909983  0.75767850  1
  In  In100  1  0.48643665  0.01331527  0.99636252  1
  In  In101  1  0.48768131  0.01187303  0.25590686  1
  In  In102  1  0.49391177  0.00624300  0.50702875  1
  In  In103  1  0.48944637  0.01043204  0.74519206  1
  In  In104  1  0.23688242  0.26331185  0.00174602  1
  In  In105  1  0.24135068  0.25865665  0.26169973  1
  In  In106  1  0.23975678  0.25988300  0.50772051  1
  In  In107  1  0.24335120  0.25655231  0.74401156  1
  In  In108  1  0.98634855  0.51351934  0.99669146  1
  In  In109  1  0.98791210  0.51160712  0.25591548  1
  In  In110  1  0.99359247  0.50610882  0.50705947  1
  In  In111  1  0.98949460  0.51055279  0.74529879  1
  In  In112  1  0.75423119  0.24581051  0.99995228  1
  In  In113  1  0.76235612  0.23711341  0.24030494  1
  In  In114  1  0.76111736  0.23864068  0.49037586  1
  In  In115  1  0.76226970  0.23771136  0.74873138  1
  In  In116  1  0.50604962  0.49392572  0.00119710  1
  In  In117  1  0.50717736  0.49273608  0.23914969  1
  In  In118  1  0.51279717  0.48673698  0.49668258  1
  In  In119  1  0.51069924  0.48934682  0.75775743  1
  In  In120  1  0.25426589  0.74580098  0.00021037  1
  In  In121  1  0.26210165  0.73700739  0.24058012  1
  In  In122  1  0.26109712  0.73914203  0.49033724  1
  In  In123  1  0.26196772  0.73771910  0.74859465  1
  In  In124  1  0.73685316  0.76359425  0.00196368  1
  In  In125  1  0.74134654  0.75839749  0.26165632  1
  In  In126  1  0.73947835  0.75982762  0.50768937  1
  In  In127  1  0.74298995  0.75700248  0.74420299  1
  Mg  Mg128  1  0.00202457  0.25051763  0.12451713  1
  Mg  Mg129  1  0.99976623  0.24955626  0.37459427  1
  Mg  Mg130  1  0.99817570  0.24938447  0.62437560  1
  Mg  Mg131  1  0.00061983  0.25038133  0.87428367  1
  Mg  Mg132  1  0.50006507  0.24789063  0.12478361  1
  Mg  Mg133  1  0.50033553  0.25038718  0.37474670  1
  Mg  Mg134  1  0.50047304  0.25197114  0.62474164  1
  Mg  Mg135  1  0.50000406  0.24929362  0.87455022  1
  Mg  Mg136  1  0.24937333  0.49790188  0.12452090  1
  Mg  Mg137  1  0.25012428  0.50009863  0.37469033  1
  Mg  Mg138  1  0.25048024  0.50178254  0.62432498  1
  Mg  Mg139  1  0.24966863  0.49941041  0.87429019  1
  Mg  Mg140  1  0.00004642  0.74795339  0.12476503  1
  Mg  Mg141  1  0.00032131  0.75045124  0.37476633  1
  Mg  Mg142  1  0.00033822  0.75186848  0.62470804  1
  Mg  Mg143  1  -0.00001456  0.74921707  0.87457976  1
  Mg  Mg144  1  0.75196330  0.49992148  0.12483212  1
  Mg  Mg145  1  0.74953525  0.49943702  0.37480357  1
  Mg  Mg146  1  0.74803018  0.49947379  0.62473944  1
  Mg  Mg147  1  0.75064087  0.50004403  0.87453718  1
  Mg  Mg148  1  0.50197075  0.75052955  0.12462939  1
  Mg  Mg149  1  0.49973107  0.74963161  0.37459405  1
  Mg  Mg150  1  0.49799511  0.74935050  0.62434002  1
  Mg  Mg151  1  0.50045502  0.75018946  0.87438430  1
  Mg  Mg152  1  0.25204215  0.99987895  0.12477773  1
  Mg  Mg153  1  0.24947090  0.99953672  0.37477939  1
  Mg  Mg154  1  0.24802372  0.99945741  0.62472018  1
  Mg  Mg155  1  0.25060058  0.00000290  0.87456191  1
  Mg  Mg156  1  0.74946532  0.99803006  0.12457227  1
  Mg  Mg157  1  0.75022660  0.00008905  0.37453936  1
  Mg  Mg158  1  0.75040275  0.00179270  0.62430022  1
  Mg  Mg159  1  0.74964142  0.99936245  0.87434792  1
