# generated using pymatgen
data_InPbCl3
_symmetry_space_group_name_H-M   'P 1'
_cell_length_a   16.02411305
_cell_length_b   16.02411305
_cell_length_c   22.66151800
_cell_angle_alpha   90.00000000
_cell_angle_beta   90.00000000
_cell_angle_gamma   90.00000000
_symmetry_Int_Tables_number   1
_chemical_formula_structural   InPbCl3
_chemical_formula_sum   'In32 Pb32 Cl96'
_cell_volume   5818.84781027
_cell_formula_units_Z   32
loop_
 _symmetry_equiv_pos_site_id
 _symmetry_equiv_pos_as_xyz
  1  'x, y, z'
loop_
 _atom_site_type_symbol
 _atom_site_label
 _atom_site_symmetry_multiplicity
 _atom_site_fract_x
 _atom_site_fract_y
 _atom_site_fract_z
 _atom_site_occupancy
  Cl  Cl0  1  0.97828739  0.20983113  0.99637670  1
  Cl  Cl1  1  0.01931467  0.28906586  0.24743189  1
  Cl  Cl2  1  0.01309945  0.24151615  0.49779617  1
  Cl  Cl3  1  0.98301336  0.29546616  0.74684311  1
  Cl  Cl4  1  0.54445208  0.22700567  0.00109919  1
  Cl  Cl5  1  0.46071507  0.22595740  0.24977870  1
  Cl  Cl6  1  0.53359349  0.26929539  0.50042586  1
  Cl  Cl7  1  0.46286624  0.26001824  0.75171565  1
  Cl  Cl8  1  0.21710750  0.55074275  0.99494231  1
  Cl  Cl9  1  0.23519763  0.48128819  0.24412960  1
  Cl  Cl10  1  0.25576210  0.50102607  0.49664366  1
  Cl  Cl11  1  0.23979366  0.45584403  0.74807033  1
  Cl  Cl12  1  0.02785132  0.71854225  0.00014216  1
  Cl  Cl13  1  0.96434374  0.72903508  0.24972426  1
  Cl  Cl14  1  0.01815146  0.75350998  0.50181811  1
  Cl  Cl15  1  0.00594974  0.79643408  0.75245547  1
  Cl  Cl16  1  0.70559117  0.48792320  0.00049002  1
  Cl  Cl17  1  0.79563656  0.48241089  0.24994111  1
  Cl  Cl18  1  0.75525673  0.50507785  0.50349280  1
  Cl  Cl19  1  0.80455316  0.48630357  0.75314735  1
  Cl  Cl20  1  0.50147633  0.70242016  0.99506173  1
  Cl  Cl21  1  0.49485080  0.75105122  0.24702337  1
  Cl  Cl22  1  0.53554403  0.70838059  0.49990333  1
  Cl  Cl23  1  0.52622205  0.79270060  0.74746672  1
  Cl  Cl24  1  0.22487558  0.00580706  0.99895863  1
  Cl  Cl25  1  0.29365882  0.98761488  0.24879868  1
  Cl  Cl26  1  0.25497179  0.00444251  0.49937720  1
  Cl  Cl27  1  0.23882515  0.95867470  0.74939437  1
  Cl  Cl28  1  0.71831737  0.02767909  0.99758134  1
  Cl  Cl29  1  0.77767231  0.96516068  0.24896257  1
  Cl  Cl30  1  0.77330582  0.04347126  0.49956155  1
  Cl  Cl31  1  0.70979404  0.96830598  0.74805468  1
  Cl  Cl32  1  0.13669352  0.13604893  0.11750125  1
  Cl  Cl33  1  0.15358949  0.15484890  0.36258559  1
  Cl  Cl34  1  0.14331243  0.13215446  0.65435648  1
  Cl  Cl35  1  0.12319197  0.11983385  0.86798501  1
  Cl  Cl36  1  0.63406453  0.13536012  0.15820239  1
  Cl  Cl37  1  0.65491464  0.15952020  0.36906982  1
  Cl  Cl38  1  0.65988993  0.16221756  0.62593653  1
  Cl  Cl39  1  0.59025492  0.09163398  0.86476639  1
  Cl  Cl40  1  0.36640223  0.36674390  0.09659667  1
  Cl  Cl41  1  0.34239381  0.34941868  0.38044641  1
  Cl  Cl42  1  0.36057448  0.35963454  0.60142737  1
  Cl  Cl43  1  0.38138428  0.38770847  0.87296409  1
  Cl  Cl44  1  0.15544595  0.66059760  0.13381678  1
  Cl  Cl45  1  0.16276565  0.66783086  0.36965967  1
  Cl  Cl46  1  0.13905792  0.64017074  0.65293837  1
  Cl  Cl47  1  0.10025312  0.61188347  0.83915089  1
  Cl  Cl48  1  0.84533347  0.34192894  0.10124658  1
  Cl  Cl49  1  0.84027745  0.34122126  0.38511422  1
  Cl  Cl50  1  0.85572748  0.34908931  0.60899613  1
  Cl  Cl51  1  0.88544575  0.38824738  0.90841436  1
  Cl  Cl52  1  0.62634832  0.62537774  0.13340639  1
  Cl  Cl53  1  0.64269173  0.63837343  0.34353472  1
  Cl  Cl54  1  0.66995447  0.66179770  0.63738619  1
  Cl  Cl55  1  0.61343890  0.61363054  0.83379771  1
  Cl  Cl56  1  0.33941600  0.83756848  0.11641422  1
  Cl  Cl57  1  0.36073025  0.85751277  0.39806083  1
  Cl  Cl58  1  0.36511476  0.85335533  0.59649731  1
  Cl  Cl59  1  0.41557122  0.90661614  0.87607756  1
  Cl  Cl60  1  0.86865409  0.87135892  0.09633771  1
  Cl  Cl61  1  0.86653399  0.86646556  0.39863208  1
  Cl  Cl62  1  0.86081331  0.86332549  0.60136132  1
  Cl  Cl63  1  0.88561091  0.89135010  0.90709239  1
  Cl  Cl64  1  0.90903075  0.09599227  0.14610050  1
  Cl  Cl65  1  0.90239081  0.09789520  0.34760543  1
  Cl  Cl66  1  0.88965556  0.11141840  0.65953758  1
  Cl  Cl67  1  0.84231143  0.15582310  0.85246293  1
  Cl  Cl68  1  0.41010238  0.09032186  0.11511213  1
  Cl  Cl69  1  0.40986884  0.09744111  0.38967084  1
  Cl  Cl70  1  0.41285865  0.08830861  0.61671145  1
  Cl  Cl71  1  0.35226479  0.14882833  0.89153840  1
  Cl  Cl72  1  0.10106547  0.39734751  0.09607135  1
  Cl  Cl73  1  0.11891582  0.38481062  0.37972249  1
  Cl  Cl74  1  0.09709729  0.40081415  0.61217229  1
  Cl  Cl75  1  0.14293687  0.35545596  0.88845092  1
  Cl  Cl76  1  0.91687384  0.58265486  0.11517337  1
  Cl  Cl77  1  0.91862050  0.58192533  0.37885134  1
  Cl  Cl78  1  0.91007246  0.58484205  0.61789783  1
  Cl  Cl79  1  0.84254861  0.65902911  0.88442893  1
  Cl  Cl80  1  0.60640958  0.39531586  0.14350974  1
  Cl  Cl81  1  0.61487030  0.39151771  0.34178888  1
  Cl  Cl82  1  0.59036481  0.40734578  0.63950993  1
  Cl  Cl83  1  0.62731724  0.37241617  0.84379840  1
  Cl  Cl84  1  0.38864384  0.61105281  0.14073772  1
  Cl  Cl85  1  0.40946787  0.59325023  0.35764257  1
  Cl  Cl86  1  0.40757840  0.59166233  0.63093950  1
  Cl  Cl87  1  0.34722505  0.65047040  0.84559814  1
  Cl  Cl88  1  0.10180693  0.89577901  0.13318621  1
  Cl  Cl89  1  0.11145711  0.89251251  0.38778833  1
  Cl  Cl90  1  0.10118742  0.89905697  0.61839524  1
  Cl  Cl91  1  0.15893412  0.83805983  0.88401817  1
  Cl  Cl92  1  0.61435455  0.88934242  0.13510720  1
  Cl  Cl93  1  0.62175032  0.87824675  0.36018535  1
  Cl  Cl94  1  0.61814918  0.88429375  0.59056785  1
  Cl  Cl95  1  0.65233292  0.84572307  0.88462213  1
  In  In96  1  0.01112970  0.00795277  0.04755875  1
  In  In97  1  0.96089685  0.98745503  0.25018112  1
  In  In98  1  0.97135403  0.94073534  0.49538041  1
  In  In99  1  0.05154180  0.00014161  0.72742182  1
  In  In100  1  0.52830745  0.04231411  0.98874193  1
  In  In101  1  0.49327836  0.04316951  0.23027845  1
  In  In102  1  0.44360051  0.97772580  0.50306997  1
  In  In103  1  0.51511804  0.98049961  0.76527386  1
  In  In104  1  0.20480369  0.19429920  0.97952369  1
  In  In105  1  0.21763016  0.29125968  0.27717404  1
  In  In106  1  0.21868105  0.31316423  0.48205754  1
  In  In107  1  0.26349410  0.27433397  0.79510183  1
  In  In108  1  0.01843740  0.51123770  0.00849114  1
  In  In109  1  0.97558657  0.53264919  0.25015843  1
  In  In110  1  0.94028266  0.45887172  0.51361231  1
  In  In111  1  0.01518252  0.49366452  0.71890543  1
  In  In112  1  0.79183285  0.26915160  0.98473961  1
  In  In113  1  0.73394596  0.28027862  0.28004612  1
  In  In114  1  0.72171266  0.23047424  0.50129695  1
  In  In115  1  0.79903432  0.24995987  0.72860067  1
  In  In116  1  0.52716657  0.51012323  0.04765441  1
  In  In117  1  0.52948734  0.54460456  0.25708493  1
  In  In118  1  0.47834196  0.47465551  0.53880902  1
  In  In119  1  0.49756305  0.45314017  0.76453918  1
  In  In120  1  0.21566859  0.73783796  0.01474695  1
  In  In121  1  0.28625850  0.73003843  0.21840115  1
  In  In122  1  0.21641017  0.79471616  0.47383124  1
  In  In123  1  0.20625314  0.74624709  0.76863584  1
  In  In124  1  0.77465784  0.78165161  0.97658202  1
  In  In125  1  0.68638456  0.78670764  0.25240388  1
  In  In126  1  0.72217646  0.75657478  0.52891007  1
  In  In127  1  0.70901796  0.75196115  0.76982966  1
  Pb  Pb128  1  0.00175967  0.25238303  0.12596130  1
  Pb  Pb129  1  0.99902492  0.24659860  0.37212535  1
  Pb  Pb130  1  0.00812601  0.24345747  0.62348832  1
  Pb  Pb131  1  0.99502907  0.25163088  0.87298335  1
  Pb  Pb132  1  0.50069193  0.25053132  0.12500546  1
  Pb  Pb133  1  0.49465359  0.25000680  0.37365727  1
  Pb  Pb134  1  0.49975740  0.24542303  0.62495653  1
  Pb  Pb135  1  0.49975836  0.25177755  0.87679041  1
  Pb  Pb136  1  0.25082355  0.49276092  0.11919223  1
  Pb  Pb137  1  0.25350250  0.51361460  0.37031056  1
  Pb  Pb138  1  0.25004897  0.50119283  0.62538110  1
  Pb  Pb139  1  0.24112331  0.50955957  0.87053884  1
  Pb  Pb140  1  0.99604542  0.74828524  0.12607610  1
  Pb  Pb141  1  0.00144348  0.74226057  0.37446261  1
  Pb  Pb142  1  0.00147908  0.75022103  0.62847975  1
  Pb  Pb143  1  0.99704536  0.75338500  0.87528957  1
  Pb  Pb144  1  0.75623211  0.49027250  0.12156041  1
  Pb  Pb145  1  0.75621462  0.49976483  0.37460765  1
  Pb  Pb146  1  0.75147108  0.50096443  0.63199849  1
  Pb  Pb147  1  0.74738912  0.50252592  0.87068503  1
  Pb  Pb148  1  0.50087288  0.75013574  0.11636781  1
  Pb  Pb149  1  0.50153567  0.74592773  0.37781892  1
  Pb  Pb150  1  0.50302921  0.74734559  0.62044223  1
  Pb  Pb151  1  0.49448060  0.74373512  0.87296448  1
  Pb  Pb152  1  0.25565693  0.99724782  0.12703957  1
  Pb  Pb153  1  0.25657601  0.00787104  0.37048134  1
  Pb  Pb154  1  0.25838187  0.99746099  0.62486656  1
  Pb  Pb155  1  0.25540349  0.98926157  0.87546535  1
  Pb  Pb156  1  0.74719181  0.00333581  0.12451737  1
  Pb  Pb157  1  0.75440637  0.00211510  0.37587176  1
  Pb  Pb158  1  0.74978641  0.00382624  0.62479867  1
  Pb  Pb159  1  0.74997401  0.00490249  0.87236699  1
