# generated using pymatgen
data_InPbF3
_symmetry_space_group_name_H-M   'P 1'
_cell_length_a   13.61519258
_cell_length_b   13.61519258
_cell_length_c   19.25479000
_cell_angle_alpha   90.00000000
_cell_angle_beta   90.00000000
_cell_angle_gamma   90.00000000
_symmetry_Int_Tables_number   1
_chemical_formula_structural   InPbF3
_chemical_formula_sum   'In32 Pb32 F96'
_cell_volume   3569.32721663
_cell_formula_units_Z   32
loop_
 _symmetry_equiv_pos_site_id
 _symmetry_equiv_pos_as_xyz
  1  'x, y, z'
loop_
 _atom_site_type_symbol
 _atom_site_label
 _atom_site_symmetry_multiplicity
 _atom_site_fract_x
 _atom_site_fract_y
 _atom_site_fract_z
 _atom_site_occupancy
  F  F0  1  0.93926893  0.26587894  0.00388288  1
  F  F1  1  0.99774788  0.29416855  0.25749696  1
  F  F2  1  0.01190336  0.28104014  0.50713944  1
  F  F3  1  0.94383447  0.24802512  0.75366824  1
  F  F4  1  0.50283275  0.23620242  0.01202198  1
  F  F5  1  0.49592645  0.20068778  0.26296443  1
  F  F6  1  0.46647346  0.24234435  0.51154849  1
  F  F7  1  0.46507811  0.20781011  0.76132543  1
  F  F8  1  0.18820560  0.50720374  0.00507941  1
  F  F9  1  0.24905804  0.56078055  0.25329895  1
  F  F10  1  0.26368397  0.54776058  0.49914029  1
  F  F11  1  0.27874334  0.50672380  0.75365422  1
  F  F12  1  0.01299961  0.69996396  0.98226759  1
  F  F13  1  0.01892555  0.77975619  0.23244374  1
  F  F14  1  0.96062221  0.79176358  0.48059586  1
  F  F15  1  0.96713204  0.74081191  0.73108824  1
  F  F16  1  0.75023512  0.45474552  0.98949060  1
  F  F17  1  0.71698709  0.50650391  0.24315583  1
  F  F18  1  0.71163683  0.49558888  0.49366044  1
  F  F19  1  0.74898471  0.44841078  0.74450756  1
  F  F20  1  0.53329960  0.75276390  0.00515810  1
  F  F21  1  0.45387696  0.73793652  0.25543099  1
  F  F22  1  0.45463314  0.72590780  0.50150047  1
  F  F23  1  0.50023766  0.72452131  0.75365933  1
  F  F24  1  0.22197052  0.00519713  0.00326170  1
  F  F25  1  0.29193403  0.06159193  0.25464227  1
  F  F26  1  0.25513835  0.03991136  0.49398641  1
  F  F27  1  0.28898104  0.00501227  0.74566784  1
  F  F28  1  0.75135174  0.96716055  0.99183690  1
  F  F29  1  0.70703460  0.04825458  0.24226743  1
  F  F30  1  0.80752964  0.98713299  0.48500533  1
  F  F31  1  0.79382496  0.00791694  0.73596111  1
  F  F32  1  0.14875417  0.16352663  0.10328452  1
  F  F33  1  0.18440210  0.16291426  0.36638700  1
  F  F34  1  0.13763487  0.12232327  0.63692239  1
  F  F35  1  0.10140534  0.11969229  0.90561190  1
  F  F36  1  0.57610022  0.11057001  0.12927242  1
  F  F37  1  0.61635869  0.09193783  0.39347434  1
  F  F38  1  0.66777342  0.13544554  0.60524984  1
  F  F39  1  0.62177163  0.11983191  0.88923814  1
  F  F40  1  0.33815768  0.36054300  0.10173844  1
  F  F41  1  0.35602906  0.31299204  0.37185624  1
  F  F42  1  0.36882488  0.33811330  0.65759780  1
  F  F43  1  0.36911078  0.36539479  0.84064671  1
  F  F44  1  0.08539507  0.61320970  0.11318192  1
  F  F45  1  0.12324426  0.61311848  0.38891933  1
  F  F46  1  0.12351718  0.59816394  0.65959806  1
  F  F47  1  0.10862636  0.59477246  0.84172172  1
  F  F48  1  0.88828009  0.40194391  0.14857288  1
  F  F49  1  0.90492222  0.37919670  0.39740191  1
  F  F50  1  0.83676665  0.32351658  0.62515028  1
  F  F51  1  0.82093101  0.33166884  0.87708475  1
  F  F52  1  0.63009486  0.64812138  0.13836893  1
  F  F53  1  0.61350721  0.59742936  0.35752708  1
  F  F54  1  0.61183977  0.58864552  0.60993703  1
  F  F55  1  0.63027246  0.62449693  0.90879319  1
  F  F56  1  0.36650956  0.89317725  0.09559731  1
  F  F57  1  0.40442626  0.89170576  0.39230499  1
  F  F58  1  0.38255654  0.86277255  0.65868301  1
  F  F59  1  0.37632082  0.89026533  0.88232179  1
  F  F60  1  0.85243331  0.88366873  0.15069228  1
  F  F61  1  0.90081596  0.88518199  0.33230153  1
  F  F62  1  0.91953228  0.88951477  0.60947907  1
  F  F63  1  0.88192238  0.87234551  0.83583932  1
  F  F64  1  0.86096907  0.15216969  0.15862670  1
  F  F65  1  0.85955045  0.13753152  0.34387009  1
  F  F66  1  0.88560020  0.11789355  0.59382799  1
  F  F67  1  0.88983160  0.10008925  0.86666433  1
  F  F68  1  0.35967047  0.13075657  0.09077576  1
  F  F69  1  0.39441961  0.10958306  0.39805470  1
  F  F70  1  0.40500112  0.08993112  0.63572494  1
  F  F71  1  0.38337802  0.12961796  0.90834549  1
  F  F72  1  0.10166251  0.40703728  0.14924184  1
  F  F73  1  0.11145483  0.38891845  0.39450994  1
  F  F74  1  0.11849485  0.38684541  0.65998713  1
  F  F75  1  0.11444155  0.38185907  0.83968122  1
  F  F76  1  0.85441684  0.65918258  0.14355235  1
  F  F77  1  0.84515657  0.64559757  0.40644926  1
  F  F78  1  0.86435236  0.64726003  0.59139446  1
  F  F79  1  0.86560416  0.66109791  0.85326011  1
  F  F80  1  0.62620016  0.38058145  0.12379702  1
  F  F81  1  0.61232230  0.39307489  0.35267818  1
  F  F82  1  0.62135339  0.38148120  0.60168933  1
  F  F83  1  0.59669043  0.42442629  0.87716698  1
  F  F84  1  0.33792863  0.67143605  0.11194807  1
  F  F85  1  0.33648244  0.66584713  0.37838575  1
  F  F86  1  0.34165146  0.65517209  0.63862712  1
  F  F87  1  0.41912202  0.57835104  0.87722446  1
  F  F88  1  0.15376951  0.84749663  0.10250190  1
  F  F89  1  0.10558794  0.87723385  0.35509763  1
  F  F90  1  0.15902703  0.84017024  0.64813473  1
  F  F91  1  0.11003067  0.90435498  0.89440952  1
  F  F92  1  0.64095572  0.87530903  0.13630859  1
  F  F93  1  0.61833209  0.88036454  0.39720888  1
  F  F94  1  0.60551233  0.89071114  0.64282104  1
  F  F95  1  0.64378137  0.84056744  0.88404312  1
  In  In96  1  0.04651860  0.00085085  0.98435079  1
  In  In97  1  0.02131506  0.94838443  0.26014958  1
  In  In98  1  0.97684371  0.97769627  0.51041231  1
  In  In99  1  0.96249272  0.00458310  0.76843113  1
  In  In100  1  0.48597823  0.04937510  0.01486973  1
  In  In101  1  0.52313027  0.03098798  0.23732241  1
  In  In102  1  0.51226915  0.98957895  0.47009050  1
  In  In103  1  0.46919117  0.99002930  0.73122518  1
  In  In104  1  0.25850953  0.24553198  0.02245557  1
  In  In105  1  0.27361610  0.23702490  0.27108465  1
  In  In106  1  0.28102452  0.22381947  0.48037525  1
  In  In107  1  0.29088469  0.25213774  0.75057226  1
  In  In108  1  0.01700624  0.52932267  0.01390523  1
  In  In109  1  0.99352362  0.47108053  0.23558054  1
  In  In110  1  0.00811021  0.45426732  0.48229382  1
  In  In111  1  0.02867396  0.49088633  0.74424575  1
  In  In112  1  0.76128108  0.27959474  0.99149127  1
  In  In113  1  0.77009195  0.21977255  0.25317820  1
  In  In114  1  0.77619008  0.22458790  0.52876368  1
  In  In115  1  0.76847023  0.26674327  0.74458168  1
  In  In116  1  0.52237918  0.51648495  0.97083789  1
  In  In117  1  0.54601693  0.49917951  0.26653509  1
  In  In118  1  0.53994264  0.48905867  0.52105596  1
  In  In119  1  0.46545458  0.49356438  0.77059683  1
  In  In120  1  0.26875853  0.78155573  0.02364666  1
  In  In121  1  0.27604479  0.73313224  0.26071786  1
  In  In122  1  0.28051585  0.72220891  0.49635678  1
  In  In123  1  0.26662289  0.75636414  0.72621113  1
  In  In124  1  0.70900219  0.75692601  0.98537812  1
  In  In125  1  0.75086966  0.76069314  0.21385694  1
  In  In126  1  0.78778985  0.73835319  0.50206329  1
  In  In127  1  0.79753210  0.75551057  0.76248702  1
  Pb  Pb128  1  0.99447139  0.25799962  0.12606980  1
  Pb  Pb129  1  0.00747898  0.24244811  0.37623006  1
  Pb  Pb130  1  0.01292155  0.24042372  0.63070012  1
  Pb  Pb131  1  0.98824005  0.24865022  0.87775075  1
  Pb  Pb132  1  0.49383204  0.27148627  0.13038943  1
  Pb  Pb133  1  0.51586159  0.24252826  0.38400154  1
  Pb  Pb134  1  0.50887223  0.23499851  0.62876736  1
  Pb  Pb135  1  0.50411280  0.24476192  0.87943771  1
  Pb  Pb136  1  0.24164229  0.51242477  0.12614711  1
  Pb  Pb137  1  0.24971176  0.50584803  0.37754270  1
  Pb  Pb138  1  0.25583319  0.49495745  0.63009827  1
  Pb  Pb139  1  0.23847126  0.48747273  0.87535943  1
  Pb  Pb140  1  0.99401149  0.76339403  0.11213815  1
  Pb  Pb141  1  0.99784087  0.73836977  0.36529231  1
  Pb  Pb142  1  0.01653036  0.73940711  0.61588265  1
  Pb  Pb143  1  0.01917247  0.74452991  0.86398080  1
  Pb  Pb144  1  0.74470625  0.50900739  0.12202642  1
  Pb  Pb145  1  0.75607088  0.49702380  0.37380692  1
  Pb  Pb146  1  0.75676093  0.49131962  0.62195370  1
  Pb  Pb147  1  0.75340641  0.49963759  0.86896071  1
  Pb  Pb148  1  0.49713582  0.76347718  0.12865400  1
  Pb  Pb149  1  0.50423612  0.74642375  0.37875106  1
  Pb  Pb150  1  0.50928746  0.74431639  0.63133064  1
  Pb  Pb151  1  0.48969153  0.75643668  0.87484342  1
  Pb  Pb152  1  0.24176650  0.01053524  0.12944081  1
  Pb  Pb153  1  0.26252979  0.99763924  0.37395467  1
  Pb  Pb154  1  0.25133724  0.99686195  0.62085094  1
  Pb  Pb155  1  0.25726494  0.01150737  0.87305899  1
  Pb  Pb156  1  0.74722032  0.01033133  0.11569474  1
  Pb  Pb157  1  0.75576031  0.98984598  0.36592601  1
  Pb  Pb158  1  0.75243016  0.98329064  0.61927149  1
  Pb  Pb159  1  0.73924413  0.99705995  0.87395894  1
