# generated using pymatgen
data_InPbI3
_symmetry_space_group_name_H-M   'P 1'
_cell_length_a   17.86328082
_cell_length_b   17.86328082
_cell_length_c   25.26249400
_cell_angle_alpha   90.00000000
_cell_angle_beta   90.00000000
_cell_angle_gamma   90.00000000
_symmetry_Int_Tables_number   1
_chemical_formula_structural   InPbI3
_chemical_formula_sum   'In32 Pb32 I96'
_cell_volume   8061.18103458
_cell_formula_units_Z   32
loop_
 _symmetry_equiv_pos_site_id
 _symmetry_equiv_pos_as_xyz
  1  'x, y, z'
loop_
 _atom_site_type_symbol
 _atom_site_label
 _atom_site_symmetry_multiplicity
 _atom_site_fract_x
 _atom_site_fract_y
 _atom_site_fract_z
 _atom_site_occupancy
  I  I0  1  0.00021231  0.28453743  0.99614778  1
  I  I1  1  0.99510737  0.20094913  0.24734237  1
  I  I2  1  0.98448858  0.30297554  0.49712201  1
  I  I3  1  0.98940810  0.19310952  0.74619956  1
  I  I4  1  0.45391494  0.25114726  0.99718785  1
  I  I5  1  0.53119602  0.26906283  0.25216195  1
  I  I6  1  0.43988736  0.22443104  0.50148989  1
  I  I7  1  0.54522631  0.27022228  0.74577837  1
  I  I8  1  0.22675876  0.45622282  -0.00029885  1
  I  I9  1  0.25247105  0.53973773  0.24993170  1
  I  I10  1  0.22695692  0.47466202  0.50150904  1
  I  I11  1  0.24508871  0.55580217  0.75035321  1
  I  I12  1  0.93816329  0.70651843  0.99925618  1
  I  I13  1  0.01653484  0.78136432  0.24419323  1
  I  I14  1  0.97226243  0.74037165  0.49704919  1
  I  I15  1  0.04027236  0.76987579  0.74888520  1
  I  I16  1  0.77018566  0.50280667  0.99504983  1
  I  I17  1  0.69334991  0.47308115  0.24788120  1
  I  I18  1  0.80014081  0.51070989  0.49600284  1
  I  I19  1  0.69670236  0.50700121  0.74333973  1
  I  I20  1  0.49682987  0.78416319  0.99775925  1
  I  I21  1  0.46738125  0.68946745  0.24789029  1
  I  I22  1  0.50696677  0.76835283  0.49679743  1
  I  I23  1  0.50565658  0.69782416  0.74779477  1
  I  I24  1  0.27448492  0.00675870  0.99778324  1
  I  I25  1  0.19880654  0.98843840  0.24982339  1
  I  I26  1  0.30446956  0.00229239  0.49736546  1
  I  I27  1  0.21075346  0.99520071  0.74645788  1
  I  I28  1  0.70789104  0.95954853  0.99727597  1
  I  I29  1  0.77971155  0.02736514  0.24607163  1
  I  I30  1  0.73081670  0.94235507  0.49432976  1
  I  I31  1  0.75469463  0.04487837  0.74243055  1
  I  I32  1  0.10220206  0.10355182  0.10513540  1
  I  I33  1  0.11864128  0.11714125  0.38688914  1
  I  I34  1  0.14593174  0.15001158  0.61877520  1
  I  I35  1  0.10721566  0.10130394  0.88055941  1
  I  I36  1  0.58751201  0.10429314  0.12980943  1
  I  I37  1  0.60411576  0.10660115  0.36681004  1
  I  I38  1  0.63376690  0.14704229  0.60318069  1
  I  I39  1  0.60172042  0.10739155  0.86501344  1
  I  I40  1  0.42564495  0.42908652  0.13771312  1
  I  I41  1  0.40928553  0.41309660  0.37431992  1
  I  I42  1  0.33452832  0.34493292  0.64657676  1
  I  I43  1  0.38968524  0.40037592  0.86870035  1
  I  I44  1  0.09981632  0.59828405  0.13143277  1
  I  I45  1  0.08475508  0.58086831  0.37544729  1
  I  I46  1  0.12152369  0.62886433  0.61179001  1
  I  I47  1  0.09880618  0.61361984  0.87216224  1
  I  I48  1  0.90364149  0.40573295  0.13897004  1
  I  I49  1  0.89372805  0.39015079  0.33177105  1
  I  I50  1  0.82932668  0.33039649  0.63727747  1
  I  I51  1  0.87620855  0.37965728  0.85599601  1
  I  I52  1  0.61042561  0.60664431  0.09449517  1
  I  I53  1  0.59650598  0.58448019  0.38156970  1
  I  I54  1  0.63847278  0.64168747  0.60567839  1
  I  I55  1  0.58950535  0.59131169  0.88918786  1
  I  I56  1  0.38436768  0.88540516  0.12994719  1
  I  I57  1  0.39399482  0.88138284  0.35888128  1
  I  I58  1  0.32912207  0.83361706  0.62713253  1
  I  I59  1  0.38454110  0.87944829  0.83614879  1
  I  I60  1  0.87513818  0.88363940  0.11780906  1
  I  I61  1  0.90171098  0.89846708  0.36667803  1
  I  I62  1  0.84411542  0.85059967  0.62668648  1
  I  I63  1  0.90381553  0.91169587  0.88912630  1
  I  I64  1  0.86288712  0.13270505  0.10289102  1
  I  I65  1  0.84449604  0.14984558  0.39595169  1
  I  I66  1  0.88483093  0.10559305  0.57769348  1
  I  I67  1  0.84312136  0.14862315  0.89654689  1
  I  I68  1  0.34943867  0.15257549  0.16087294  1
  I  I69  1  0.35713917  0.14679434  0.34490682  1
  I  I70  1  0.39927434  0.10124097  0.64451966  1
  I  I71  1  0.34665390  0.15675092  0.84498857  1
  I  I72  1  0.13705054  0.36402968  0.14424482  1
  I  I73  1  0.14506550  0.35283421  0.34126150  1
  I  I74  1  0.09868726  0.39118979  0.63039541  1
  I  I75  1  0.14579498  0.34603471  0.84563190  1
  I  I76  1  0.83876815  0.65482824  0.15193304  1
  I  I77  1  0.84849834  0.65342938  0.34437585  1
  I  I78  1  0.87268844  0.61545778  0.64089468  1
  I  I79  1  0.85046506  0.64810121  0.83151630  1
  I  I80  1  0.65321576  0.34617692  0.09337140  1
  I  I81  1  0.66014876  0.34219292  0.39945462  1
  I  I82  1  0.58956600  0.40470163  0.57962773  1
  I  I83  1  0.64718912  0.35245029  0.89365027  1
  I  I84  1  0.34044729  0.65302613  0.09192345  1
  I  I85  1  0.34763788  0.65048482  0.39462055  1
  I  I86  1  0.39759386  0.60190229  0.60711006  1
  I  I87  1  0.34083978  0.65153817  0.89881154  1
  I  I88  1  0.13759030  0.85388504  0.09031270  1
  I  I89  1  0.16295882  0.83960064  0.39084325  1
  I  I90  1  0.09128698  0.91237935  0.59205903  1
  I  I91  1  0.13805640  0.86344885  0.89087243  1
  I  I92  1  0.62918122  0.85867418  0.13820981  1
  I  I93  1  0.65348310  0.84216102  0.33183646  1
  I  I94  1  0.58332058  0.91530624  0.64009131  1
  I  I95  1  0.64972103  0.84698096  0.83866543  1
  In  In96  1  0.08660770  0.98112941  0.99818897  1
  In  In97  1  0.96073956  0.02929773  0.19237293  1
  In  In98  1  0.92082115  0.93006251  0.50454183  1
  In  In99  1  0.03555353  0.96303166  0.79784668  1
  In  In100  1  0.52764984  0.95815093  0.04739913  1
  In  In101  1  0.48301271  0.08889721  0.25041647  1
  In  In102  1  0.49486157  0.04632921  0.53999428  1
  In  In103  1  0.56438101  0.07369150  0.72594263  1
  In  In104  1  0.27723965  0.28369162  0.93972568  1
  In  In105  1  0.19168280  0.18549842  0.27426469  1
  In  In106  1  0.22296466  0.28972536  0.54775663  1
  In  In107  1  0.17953229  0.18681414  0.75671695  1
  In  In108  1  0.03938151  0.46352511  0.04928855  1
  In  In109  1  0.06943067  0.47806992  0.25308081  1
  In  In110  1  0.04441440  0.50019754  0.52512535  1
  In  In111  1  0.05592267  0.58177452  0.74150638  1
  In  In112  1  0.80900907  0.30881197  0.97264593  1
  In  In113  1  0.72262186  0.22715975  0.30566793  1
  In  In114  1  0.79984478  0.24847345  0.51258258  1
  In  In115  1  0.73333335  0.22359448  0.80336163  1
  In  In116  1  0.58158894  0.46423653  0.00268406  1
  In  In117  1  0.50197409  0.49283835  0.26766325  1
  In  In118  1  0.52302599  0.56818821  0.51183220  1
  In  In119  1  0.51442451  0.51672741  0.78033832  1
  In  In120  1  0.30224488  0.80962050  0.01996533  1
  In  In121  1  0.28134698  0.75711721  0.29842980  1
  In  In122  1  0.31759900  0.80895131  0.47642475  1
  In  In123  1  0.23940288  0.74236547  0.81084823  1
  In  In124  1  0.75683884  0.76179434  0.05753763  1
  In  In125  1  0.82699297  0.79686410  0.25665801  1
  In  In126  1  0.79379374  0.69786163  0.53327554  1
  In  In127  1  0.73835901  0.68989977  0.72002767  1
  Pb  Pb128  1  0.99691974  0.25237420  0.12493488  1
  Pb  Pb129  1  0.98846556  0.25379159  0.37314532  1
  Pb  Pb130  1  0.98875375  0.24411218  0.62316403  1
  Pb  Pb131  1  0.99790119  0.24893228  0.86929413  1
  Pb  Pb132  1  0.49925952  0.26574693  0.11916682  1
  Pb  Pb133  1  0.49432970  0.25684790  0.37992232  1
  Pb  Pb134  1  0.49282836  0.26528365  0.61960887  1
  Pb  Pb135  1  0.49759519  0.25244261  0.87023936  1
  Pb  Pb136  1  0.26442830  0.50119048  0.12342945  1
  Pb  Pb137  1  0.24799312  0.49747190  0.37255593  1
  Pb  Pb138  1  0.25422681  0.50548348  0.62853663  1
  Pb  Pb139  1  0.24389611  0.50650354  0.87729482  1
  Pb  Pb140  1  0.00116008  0.74373418  0.11976400  1
  Pb  Pb141  1  0.00007161  0.73882178  0.36854595  1
  Pb  Pb142  1  0.00633161  0.76794176  0.62387315  1
  Pb  Pb143  1  0.97719268  0.74809373  0.88374602  1
  Pb  Pb144  1  0.74982879  0.49984421  0.13141431  1
  Pb  Pb145  1  0.75568151  0.49249749  0.36866320  1
  Pb  Pb146  1  0.74380432  0.48379590  0.61482123  1
  Pb  Pb147  1  0.74797711  0.50831283  0.86918352  1
  Pb  Pb148  1  0.49334533  0.73484808  0.12468750  1
  Pb  Pb149  1  0.51410343  0.74147553  0.36606870  1
  Pb  Pb150  1  0.49001343  0.76144280  0.62503827  1
  Pb  Pb151  1  0.50561276  0.75629400  0.86886442  1
  Pb  Pb152  1  0.25275724  0.01307808  0.13253819  1
  Pb  Pb153  1  0.24795795  0.99805953  0.37376935  1
  Pb  Pb154  1  0.25106794  0.99357435  0.61881423  1
  Pb  Pb155  1  0.26359904  0.00112457  0.86962650  1
  Pb  Pb156  1  0.73978365  0.00777293  0.12442099  1
  Pb  Pb157  1  0.74323651  0.98426768  0.37202904  1
  Pb  Pb158  1  0.74361862  0.00170323  0.61913769  1
  Pb  Pb159  1  0.74188539  0.98914177  0.87737634  1
