# generated using pymatgen
data_InPbBr3
_symmetry_space_group_name_H-M   'P 1'
_cell_length_a   16.76588362
_cell_length_b   16.76588362
_cell_length_c   23.71054100
_cell_angle_alpha   90.00000000
_cell_angle_beta   90.00000000
_cell_angle_gamma   90.00000000
_symmetry_Int_Tables_number   1
_chemical_formula_structural   InPbBr3
_chemical_formula_sum   'In32 Pb32 Br96'
_cell_volume   6664.91104989
_cell_formula_units_Z   32
loop_
 _symmetry_equiv_pos_site_id
 _symmetry_equiv_pos_as_xyz
  1  'x, y, z'
loop_
 _atom_site_type_symbol
 _atom_site_label
 _atom_site_symmetry_multiplicity
 _atom_site_fract_x
 _atom_site_fract_y
 _atom_site_fract_z
 _atom_site_occupancy
  Br  Br0  1  0.01030212  0.27489392  0.00175685  1
  Br  Br1  1  0.02467101  0.20469775  0.25004626  1
  Br  Br2  1  0.01612975  0.29546604  0.50029108  1
  Br  Br3  1  0.98498967  0.20780177  0.74967449  1
  Br  Br4  1  0.49704343  0.25149023  0.99914579  1
  Br  Br5  1  0.50122377  0.30070184  0.25141660  1
  Br  Br6  1  0.53579956  0.22031093  0.49979996  1
  Br  Br7  1  0.45196652  0.24036314  0.74665388  1
  Br  Br8  1  0.21755366  0.51780688  0.00279902  1
  Br  Br9  1  0.28807299  0.44580274  0.24888852  1
  Br  Br10  1  0.26362071  0.53554262  0.49686644  1
  Br  Br11  1  0.23786091  0.52600896  0.75059043  1
  Br  Br12  1  0.01935751  0.77510259  0.99881138  1
  Br  Br13  1  0.96189786  0.72734681  0.25267331  1
  Br  Br14  1  0.03651888  0.77950744  0.50097590  1
  Br  Br15  1  0.98038888  0.70436981  0.74873656  1
  Br  Br16  1  0.80201816  0.47657756  0.00203804  1
  Br  Br17  1  0.71398636  0.50268981  0.25341413  1
  Br  Br18  1  0.77531499  0.45530519  0.50514525  1
  Br  Br19  1  0.70806552  0.52343644  0.75294074  1
  Br  Br20  1  0.49997019  0.79405597  0.99878604  1
  Br  Br21  1  0.55904863  0.73038113  0.24957743  1
  Br  Br22  1  0.44559561  0.74252964  0.49469301  1
  Br  Br23  1  0.51126520  0.72340116  0.74625865  1
  Br  Br24  1  0.27910503  0.95247539  0.99400108  1
  Br  Br25  1  0.23181366  0.02319985  0.24606131  1
  Br  Br26  1  0.22799729  0.94284157  0.49582237  1
  Br  Br27  1  0.24379762  0.04090747  0.74551925  1
  Br  Br28  1  0.78414821  0.97866935  -0.00026805  1
  Br  Br29  1  0.76500642  0.97546773  0.25050922  1
  Br  Br30  1  0.72283492  0.05464326  0.49852798  1
  Br  Br31  1  0.77692148  0.03678547  0.74702196  1
  Br  Br32  1  0.11898243  0.10942686  0.10661414  1
  Br  Br33  1  0.14047110  0.13180730  0.40508022  1
  Br  Br34  1  0.10401845  0.10743900  0.59038066  1
  Br  Br35  1  0.12046995  0.12423339  0.88464597  1
  Br  Br36  1  0.60661971  0.10523363  0.10497998  1
  Br  Br37  1  0.63398654  0.13694636  0.33983937  1
  Br  Br38  1  0.59530115  0.09475580  0.63950629  1
  Br  Br39  1  0.60368712  0.10355516  0.89284520  1
  Br  Br40  1  0.41435458  0.41048999  0.10827782  1
  Br  Br41  1  0.36445298  0.36147389  0.41330308  1
  Br  Br42  1  0.41181191  0.41078850  0.61074493  1
  Br  Br43  1  0.40806927  0.40871635  0.88485988  1
  Br  Br44  1  0.10574376  0.59092576  0.15740775  1
  Br  Br45  1  0.14331198  0.63682192  0.34237309  1
  Br  Br46  1  0.10603865  0.60238354  0.61036839  1
  Br  Br47  1  0.09619895  0.60433594  0.87781276  1
  Br  Br48  1  0.89350373  0.39662099  0.16102898  1
  Br  Br49  1  0.85930246  0.35786390  0.35004240  1
  Br  Br50  1  0.91089370  0.40968027  0.64666146  1
  Br  Br51  1  0.90935303  0.41306803  0.85236403  1
  Br  Br52  1  0.60693430  0.60443368  0.08807373  1
  Br  Br53  1  0.65164554  0.64695324  0.40846082  1
  Br  Br54  1  0.60031508  0.59714318  0.60708471  1
  Br  Br55  1  0.61315840  0.61968916  0.89268171  1
  Br  Br56  1  0.39385630  0.88325579  0.16245102  1
  Br  Br57  1  0.36608907  0.85686338  0.34058355  1
  Br  Br58  1  0.38896021  0.88722951  0.64521198  1
  Br  Br59  1  0.40664797  0.91220719  0.84882181  1
  Br  Br60  1  0.90586963  0.89065949  0.13710884  1
  Br  Br61  1  0.85192832  0.85070832  0.38865930  1
  Br  Br62  1  0.90255277  0.90478346  0.63096076  1
  Br  Br63  1  0.91057043  0.91385054  0.85172827  1
  Br  Br64  1  0.87421762  0.12549861  0.11477215  1
  Br  Br65  1  0.89919382  0.09538453  0.37530289  1
  Br  Br66  1  0.83999249  0.16718848  0.61669119  1
  Br  Br67  1  0.83554340  0.16755772  0.88589960  1
  Br  Br68  1  0.34519500  0.15564806  0.12057271  1
  Br  Br69  1  0.39877740  0.09451377  0.37609571  1
  Br  Br70  1  0.36590710  0.12010673  0.60555611  1
  Br  Br71  1  0.35276363  0.14363978  0.88882561  1
  Br  Br72  1  0.15681035  0.34046749  0.12359247  1
  Br  Br73  1  0.10600473  0.39335526  0.35406910  1
  Br  Br74  1  0.16086455  0.33911384  0.63436287  1
  Br  Br75  1  0.13779773  0.36917669  0.87344489  1
  Br  Br76  1  0.84133444  0.65996336  0.11675012  1
  Br  Br77  1  0.89844634  0.61005016  0.40697544  1
  Br  Br78  1  0.86071691  0.63502801  0.59773931  1
  Br  Br79  1  0.83925972  0.66056617  0.88918333  1
  Br  Br80  1  0.64713836  0.35377980  0.10229261  1
  Br  Br81  1  0.62462277  0.37738356  0.38487674  1
  Br  Br82  1  0.65400249  0.33867236  0.63380959  1
  Br  Br83  1  0.64882614  0.35050579  0.89491167  1
  Br  Br84  1  0.36159972  0.63837366  0.15797578  1
  Br  Br85  1  0.41167913  0.58715238  0.35782129  1
  Br  Br86  1  0.35498113  0.64834152  0.63459996  1
  Br  Br87  1  0.33922019  0.66805736  0.88386489  1
  Br  Br88  1  0.15644857  0.84296851  0.13040907  1
  Br  Br89  1  0.08751861  0.91033169  0.35253951  1
  Br  Br90  1  0.15748467  0.83336221  0.65007866  1
  Br  Br91  1  0.15545479  0.83943263  0.85954327  1
  Br  Br92  1  0.65933827  0.84215999  0.11755615  1
  Br  Br93  1  0.59037408  0.90356391  0.39067524  1
  Br  Br94  1  0.64008258  0.86720591  0.58304627  1
  Br  Br95  1  0.65039403  0.85577501  0.87397444  1
  In  In96  1  0.96609989  0.99765750  0.03909324  1
  In  In97  1  0.96199771  0.01754901  0.26420405  1
  In  In98  1  0.04161653  0.98850586  0.47118252  1
  In  In99  1  0.96232448  -0.00040658  0.73889063  1
  In  In100  1  0.46924504  0.98915138  0.96202159  1
  In  In101  1  0.49418339  0.98428391  0.29346327  1
  In  In102  1  0.53807740  0.01995606  0.52153520  1
  In  In103  1  0.43925117  0.04694869  0.72161192  1
  In  In104  1  0.19835733  0.22429146  0.02044078  1
  In  In105  1  0.22061354  0.21063036  0.21649490  1
  In  In106  1  0.19647334  0.23509191  0.51587853  1
  In  In107  1  0.23371008  0.21972960  0.80065022  1
  In  In108  1  0.03241549  0.46961402  0.96333302  1
  In  In109  1  0.01762267  0.54048008  0.27212772  1
  In  In110  1  0.95978456  0.50264874  0.52927327  1
  In  In111  1  0.04649086  0.52479491  0.76163362  1
  In  In112  1  0.68565915  0.21394066  0.99316482  1
  In  In113  1  0.70488458  0.31456806  0.27032632  1
  In  In114  1  0.72185380  0.26460846  0.51711172  1
  In  In115  1  0.79639513  0.22490552  0.74110067  1
  In  In116  1  0.53574233  0.44051684  0.00451485  1
  In  In117  1  0.46503327  0.50155981  0.23292101  1
  In  In118  1  0.44649552  0.50329256  0.48087454  1
  In  In119  1  0.51805840  0.53831162  0.71526887  1
  In  In120  1  0.20809144  0.76206759  0.97466671  1
  In  In121  1  0.26740691  0.77395340  0.22928613  1
  In  In122  1  0.22327029  0.72585523  0.53875290  1
  In  In123  1  0.31053781  0.76149553  0.73468083  1
  In  In124  1  0.68506230  0.73234495  0.00012225  1
  In  In125  1  0.77278937  0.77485097  0.21744078  1
  In  In126  1  0.78449903  0.73224601  0.47946591  1
  In  In127  1  0.71579565  0.71199367  0.79631403  1
  Pb  Pb128  1  0.98965287  0.26016924  0.12981870  1
  Pb  Pb129  1  0.00026788  0.25564469  0.37181906  1
  Pb  Pb130  1  0.00165307  0.25787608  0.62381835  1
  Pb  Pb131  1  0.98933262  0.25132859  0.87539282  1
  Pb  Pb132  1  0.49804218  0.25421264  0.12818654  1
  Pb  Pb133  1  0.49796705  0.24896534  0.37585924  1
  Pb  Pb134  1  0.49477375  0.25521190  0.62418062  1
  Pb  Pb135  1  0.49486568  0.25427024  0.87193960  1
  Pb  Pb136  1  0.24982044  0.49695196  0.12778420  1
  Pb  Pb137  1  0.25335925  0.49415228  0.36854654  1
  Pb  Pb138  1  0.25169871  0.49531997  0.62594491  1
  Pb  Pb139  1  0.26023093  0.50712302  0.87928581  1
  Pb  Pb140  1  0.00061706  0.73979026  0.12562617  1
  Pb  Pb141  1  0.00306285  0.75322707  0.37609917  1
  Pb  Pb142  1  0.99916261  0.75075018  0.62713604  1
  Pb  Pb143  1  0.98942603  0.75451020  0.87207595  1
  Pb  Pb144  1  0.75512191  0.49951599  0.12188493  1
  Pb  Pb145  1  0.75302452  0.50165287  0.37807757  1
  Pb  Pb146  1  0.75003362  0.49693484  0.62909850  1
  Pb  Pb147  1  0.75707530  0.49349831  0.88325063  1
  Pb  Pb148  1  0.50617122  0.74461866  0.13300831  1
  Pb  Pb149  1  0.50533403  0.74240189  0.37417071  1
  Pb  Pb150  1  0.50620914  0.75480171  0.60922895  1
  Pb  Pb151  1  0.49469902  0.75386333  0.87623147  1
  Pb  Pb152  1  0.25808177  0.98927184  0.12335388  1
  Pb  Pb153  1  0.25014483  0.99406520  0.37162331  1
  Pb  Pb154  1  0.24005834  0.99261897  0.61780832  1
  Pb  Pb155  1  0.24648877  0.99140950  0.87095193  1
  Pb  Pb156  1  0.74250406  0.00134788  0.12312042  1
  Pb  Pb157  1  0.74261763  0.00443106  0.37445647  1
  Pb  Pb158  1  0.74906973  0.00623974  0.61842879  1
  Pb  Pb159  1  0.75568093  0.00342883  0.87661491  1
