# generated using pymatgen
data_InSnI3
_symmetry_space_group_name_H-M   'P 1'
_cell_length_a   17.51423311
_cell_length_b   17.51423311
_cell_length_c   24.76886700
_cell_angle_alpha   90.00000000
_cell_angle_beta   90.00000000
_cell_angle_gamma   90.00000000
_symmetry_Int_Tables_number   1
_chemical_formula_structural   InSnI3
_chemical_formula_sum   'In32 Sn32 I96'
_cell_volume   7597.80936754
_cell_formula_units_Z   32
loop_
 _symmetry_equiv_pos_site_id
 _symmetry_equiv_pos_as_xyz
  1  'x, y, z'
loop_
 _atom_site_type_symbol
 _atom_site_label
 _atom_site_symmetry_multiplicity
 _atom_site_fract_x
 _atom_site_fract_y
 _atom_site_fract_z
 _atom_site_occupancy
  I  I0  1  0.99472291  0.28993531  0.00624554  1
  I  I1  1  0.01368757  0.22059785  0.25663254  1
  I  I2  1  0.03684436  0.31615183  0.50046875  1
  I  I3  1  0.03986670  0.24567304  0.75169226  1
  I  I4  1  0.46247707  0.29522801  0.00473520  1
  I  I5  1  0.51352208  0.19099195  0.25332721  1
  I  I6  1  0.51910582  0.30913354  0.49991719  1
  I  I7  1  0.52251107  0.21385095  0.75060702  1
  I  I8  1  0.25140440  0.45230537  0.99477716  1
  I  I9  1  0.23370539  0.53792645  0.24822775  1
  I  I10  1  0.28845469  0.44080328  0.49613192  1
  I  I11  1  0.20947486  0.53837044  0.74311165  1
  I  I12  1  0.97775185  0.77010207  0.00717061  1
  I  I13  1  0.02778971  0.70068299  0.25656303  1
  I  I14  1  0.00602076  0.80974874  0.50093979  1
  I  I15  1  0.03469426  0.74992211  0.75491699  1
  I  I16  1  0.77371657  0.46602926  0.99824760  1
  I  I17  1  0.72800994  0.53888932  0.24982746  1
  I  I18  1  0.75236888  0.48275218  0.50059664  1
  I  I19  1  0.71028854  0.54669857  0.75065037  1
  I  I20  1  0.45071049  0.74290672  0.99425778  1
  I  I21  1  0.54018780  0.73896130  0.24434765  1
  I  I22  1  0.49305067  0.81952104  0.49907513  1
  I  I23  1  0.54991919  0.76168616  0.74849775  1
  I  I24  1  0.27262895  0.97085940  0.00620108  1
  I  I25  1  0.21388320  0.04979912  0.25433728  1
  I  I26  1  0.27052668  0.98891145  0.50441798  1
  I  I27  1  0.19964648  0.02776828  0.75609990  1
  I  I28  1  0.78069024  0.96709200  0.00166043  1
  I  I29  1  0.74346000  0.05244392  0.25178147  1
  I  I30  1  0.78432185  0.95470439  0.49856355  1
  I  I31  1  0.70353639  0.01943343  0.75244211  1
  I  I32  1  0.10850450  0.10665685  0.09526322  1
  I  I33  1  0.10330349  0.10760017  0.41284759  1
  I  I34  1  0.11404407  0.11421394  0.60448784  1
  I  I35  1  0.15393312  0.16003567  0.90191981  1
  I  I36  1  0.64366873  0.15202577  0.09310092  1
  I  I37  1  0.60087478  0.10862794  0.41576081  1
  I  I38  1  0.61764402  0.09947621  0.59349813  1
  I  I39  1  0.65832039  0.15555872  0.89484112  1
  I  I40  1  0.37801893  0.37370964  0.17604503  1
  I  I41  1  0.42180282  0.42543097  0.35118435  1
  I  I42  1  0.42239501  0.41552687  0.64884054  1
  I  I43  1  0.32520051  0.32762099  0.82570571  1
  I  I44  1  0.14825772  0.63544521  0.09427329  1
  I  I45  1  0.11548315  0.62772376  0.40004617  1
  I  I46  1  0.11631597  0.60550159  0.58195313  1
  I  I47  1  0.16663448  0.65304415  0.89511438  1
  I  I48  1  0.86268463  0.35915215  0.16706736  1
  I  I49  1  0.91600958  0.41666615  0.36357467  1
  I  I50  1  0.90604354  0.41214413  0.63263025  1
  I  I51  1  0.85067061  0.35094043  0.83133360  1
  I  I52  1  0.65678167  0.64271736  0.09221562  1
  I  I53  1  0.61191846  0.62888939  0.39536631  1
  I  I54  1  0.59693140  0.60539266  0.59907575  1
  I  I55  1  0.65075392  0.64200697  0.90592242  1
  I  I56  1  0.36306309  0.85405958  0.16361264  1
  I  I57  1  0.38769267  0.90264291  0.34395643  1
  I  I58  1  0.42342255  0.92695396  0.64618899  1
  I  I59  1  0.36880423  0.86133781  0.85488855  1
  I  I60  1  0.87745831  0.87212828  0.15300230  1
  I  I61  1  0.88855432  0.90289043  0.34331323  1
  I  I62  1  0.93470261  0.92598996  0.64244391  1
  I  I63  1  0.86147543  0.85153439  0.84745063  1
  I  I64  1  0.87681047  0.11509459  0.11718259  1
  I  I65  1  0.86573214  0.15282445  0.40994265  1
  I  I66  1  0.86377798  0.16087040  0.58936799  1
  I  I67  1  0.89887934  0.10287460  0.84521201  1
  I  I68  1  0.33067610  0.16106033  0.11949654  1
  I  I69  1  0.35874207  0.16235523  0.39131990  1
  I  I70  1  0.35559718  0.15286867  0.61435035  1
  I  I71  1  0.40632040  0.09082065  0.87474946  1
  I  I72  1  0.12617761  0.37776114  0.13132194  1
  I  I73  1  0.17771445  0.34040939  0.34581617  1
  I  I74  1  0.16182642  0.36460611  0.64020746  1
  I  I75  1  0.08168207  0.42140584  0.87496968  1
  I  I76  1  0.90684847  0.58832633  0.10891102  1
  I  I77  1  0.85491745  0.65184908  0.39911326  1
  I  I78  1  0.85831231  0.64315062  0.60821494  1
  I  I79  1  0.89637433  0.60827740  0.86527770  1
  I  I80  1  0.60934804  0.38687497  0.13195084  1
  I  I81  1  0.68374976  0.32621952  0.34964464  1
  I  I82  1  0.67092318  0.33461218  0.63758021  1
  I  I83  1  0.59454546  0.40037399  0.87843738  1
  I  I84  1  0.41575765  0.59490587  0.12241126  1
  I  I85  1  0.35367889  0.65483275  0.40799084  1
  I  I86  1  0.36859132  0.66601552  0.64929561  1
  I  I87  1  0.39763086  0.60443011  0.84246513  1
  I  I88  1  0.11827650  0.87368853  0.12765555  1
  I  I89  1  0.14705749  0.86609978  0.37479803  1
  I  I90  1  0.17422608  0.83722790  0.62791442  1
  I  I91  1  0.08981149  0.91295141  0.89931670  1
  I  I92  1  0.57087753  0.92262668  0.10119397  1
  I  I93  1  0.63594924  0.87934378  0.35977122  1
  I  I94  1  0.68246450  0.83863519  0.62382985  1
  I  I95  1  0.60678665  0.89595943  0.88818028  1
  In  In96  1  0.96757167  0.96296971  0.04955705  1
  In  In97  1  0.93072916  0.02116537  0.23579907  1
  In  In98  1  0.95911376  0.03282331  0.51104148  1
  In  In99  1  0.00247145  0.95328485  0.77906826  1
  In  In100  1  0.45954776  0.93928252  0.97154295  1
  In  In101  1  0.51117589  0.92901242  0.24370729  1
  In  In102  1  0.46389340  0.01975454  0.52672656  1
  In  In103  1  0.51033788  0.96262416  0.78080356  1
  In  In104  1  0.18901253  0.24872414  0.02279740  1
  In  In105  1  0.31240741  0.21952044  0.26039451  1
  In  In106  1  0.22563845  0.18891405  0.50443682  1
  In  In107  1  0.23246204  0.21838118  0.72321092  1
  In  In108  1  0.06276723  0.47822221  0.01928826  1
  In  In109  1  0.04631343  0.41277937  0.25798864  1
  In  In110  1  0.94532359  0.51860608  0.52048356  1
  In  In111  1  0.03738731  0.43841483  0.73977243  1
  In  In112  1  0.65189700  0.30173928  0.99179131  1
  In  In113  1  0.70154276  0.24172182  0.21434805  1
  In  In114  1  0.69977840  0.22734043  0.50718279  1
  In  In115  1  0.71747155  0.21147762  0.77249022  1
  In  In116  1  0.53691876  0.56708343  0.00488722  1
  In  In117  1  0.51003772  0.50070045  0.21997940  1
  In  In118  1  0.46638177  0.49997618  0.47284734  1
  In  In119  1  0.50289117  0.56785903  0.72045368  1
  In  In120  1  0.17248491  0.79126474  0.00632964  1
  In  In121  1  0.21833984  0.71835060  0.30328892  1
  In  In122  1  0.18966104  0.75261766  0.49270329  1
  In  In123  1  0.26413404  0.71322081  0.77832440  1
  In  In124  1  0.80231815  0.65643498  -0.00165778  1
  In  In125  1  0.72284972  0.72433770  0.30514667  1
  In  In126  1  0.72461437  0.68346284  0.50795538  1
  In  In127  1  0.83640991  0.70547198  0.75620384  1
  Sn  Sn128  1  0.98837876  0.24982929  0.12833443  1
  Sn  Sn129  1  0.00525043  0.24558906  0.38292957  1
  Sn  Sn130  1  0.00020249  0.26248597  0.61232872  1
  Sn  Sn131  1  0.98454093  0.25326734  0.86738644  1
  Sn  Sn132  1  0.48206657  0.25420257  0.12218963  1
  Sn  Sn133  1  0.51474995  0.24430327  0.37409543  1
  Sn  Sn134  1  0.50884018  0.27372990  0.62496456  1
  Sn  Sn135  1  0.46830332  0.25224376  0.86287524  1
  Sn  Sn136  1  0.25823414  0.50657824  0.12955685  1
  Sn  Sn137  1  0.26432534  0.48542787  0.37733433  1
  Sn  Sn138  1  0.25062603  0.51181789  0.62167597  1
  Sn  Sn139  1  0.23818752  0.49381802  0.87470336  1
  Sn  Sn140  1  0.99912543  0.74200187  0.13545726  1
  Sn  Sn141  1  0.99400587  0.75278977  0.37450408  1
  Sn  Sn142  1  0.01441830  0.77560360  0.62120633  1
  Sn  Sn143  1  0.00037660  0.75044281  0.87669010  1
  Sn  Sn144  1  0.75927235  0.49789097  0.12569363  1
  Sn  Sn145  1  0.75845866  0.48071257  0.36658601  1
  Sn  Sn146  1  0.74214735  0.50280478  0.62587299  1
  Sn  Sn147  1  0.73807989  0.49492755  0.86959662  1
  Sn  Sn148  1  0.49609212  0.76118027  0.12445701  1
  Sn  Sn149  1  0.49103345  0.76061559  0.38535190  1
  Sn  Sn150  1  0.50812219  0.77243860  0.62603256  1
  Sn  Sn151  1  0.49784720  0.74340331  0.87085069  1
  Sn  Sn152  1  0.24426981  0.00518889  0.12627523  1
  Sn  Sn153  1  0.25131792  0.00738095  0.36913608  1
  Sn  Sn154  1  0.25382953  0.00432271  0.62612914  1
  Sn  Sn155  1  0.23492020  0.01499903  0.87776031  1
  Sn  Sn156  1  0.72879738  0.00421584  0.11336226  1
  Sn  Sn157  1  0.75438038  0.00687212  0.37365126  1
  Sn  Sn158  1  0.75421328  0.99190788  0.61641864  1
  Sn  Sn159  1  0.74697280  0.00933008  0.87328617  1
