# generated using pymatgen
data_InSnF3
_symmetry_space_group_name_H-M   'P 1'
_cell_length_a   13.29700160
_cell_length_b   13.29700160
_cell_length_c   18.80480100
_cell_angle_alpha   90.00000000
_cell_angle_beta   90.00000000
_cell_angle_gamma   90.00000000
_symmetry_Int_Tables_number   1
_chemical_formula_structural   InSnF3
_chemical_formula_sum   'In32 Sn32 F96'
_cell_volume   3324.88159459
_cell_formula_units_Z   32
loop_
 _symmetry_equiv_pos_site_id
 _symmetry_equiv_pos_as_xyz
  1  'x, y, z'
loop_
 _atom_site_type_symbol
 _atom_site_label
 _atom_site_symmetry_multiplicity
 _atom_site_fract_x
 _atom_site_fract_y
 _atom_site_fract_z
 _atom_site_occupancy
  F  F0  1  0.09574592  0.17027272  0.03340975  1
  F  F1  1  0.91601203  0.20183146  0.27227075  1
  F  F2  1  0.02984647  0.21284713  0.50680685  1
  F  F3  1  0.99177649  0.30346282  0.79943142  1
  F  F4  1  0.47090277  0.29712741  0.02934432  1
  F  F5  1  0.47521332  0.30368376  0.27354884  1
  F  F6  1  0.50868304  0.31886907  0.52776979  1
  F  F7  1  0.59064393  0.31329169  0.79736155  1
  F  F8  1  0.29109085  0.46237722  0.01629592  1
  F  F9  1  0.28488358  0.48300297  0.26538479  1
  F  F10  1  0.17592798  0.52119088  0.51054260  1
  F  F11  1  0.32742302  0.46975661  0.75651159  1
  F  F12  1  0.04904074  0.74853010  0.95108406  1
  F  F13  1  0.99145636  0.71761622  0.21044514  1
  F  F14  1  0.04507924  0.69891601  0.46089905  1
  F  F15  1  0.01219047  0.72520171  0.70770942  1
  F  F16  1  0.80997464  0.48429448  0.00174975  1
  F  F17  1  0.71081697  0.49323632  0.25864542  1
  F  F18  1  0.71415926  0.42565239  0.50087713  1
  F  F19  1  0.79572607  0.42533509  0.76737986  1
  F  F20  1  0.49353987  0.75222259  0.03374711  1
  F  F21  1  0.54939766  0.82303263  0.28228874  1
  F  F22  1  0.53838830  0.73888998  0.54705715  1
  F  F23  1  0.53706595  0.82754943  0.80836751  1
  F  F24  1  0.32466888  0.05881349  0.99518310  1
  F  F25  1  0.22629650  0.04479160  0.27946386  1
  F  F26  1  0.20693659  0.92112384  0.52640816  1
  F  F27  1  0.16924512  0.04082115  0.75988379  1
  F  F28  1  0.81222489  0.99384208  0.00399436  1
  F  F29  1  0.73348062  0.92447439  0.29515922  1
  F  F30  1  0.67120038  0.98412235  0.53306715  1
  F  F31  1  0.74146226  0.89650454  0.76843192  1
  F  F32  1  0.10146774  0.16287606  0.19125485  1
  F  F33  1  0.06116237  0.11961255  0.36418993  1
  F  F34  1  0.10608778  0.07609210  0.60228233  1
  F  F35  1  0.11847122  0.16805832  0.86786743  1
  F  F36  1  0.56724425  0.11307463  0.06422552  1
  F  F37  1  0.59890183  0.02690470  0.38556388  1
  F  F38  1  0.53549465  0.12890200  0.60345467  1
  F  F39  1  0.65676993  0.17249275  0.90993419  1
  F  F40  1  0.37959471  0.39531700  0.14550974  1
  F  F41  1  0.38136682  0.35486009  0.40545477  1
  F  F42  1  0.32935914  0.40568090  0.57569831  1
  F  F43  1  0.42652926  0.42967868  0.88018822  1
  F  F44  1  0.12447239  0.68090956  0.08850562  1
  F  F45  1  0.15732607  0.65483304  0.30402968  1
  F  F46  1  0.15080623  0.70355638  0.59559937  1
  F  F47  1  0.10360403  0.63684722  0.82761453  1
  F  F48  1  0.79582340  0.33837545  0.17143236  1
  F  F49  1  0.79785866  0.34996162  0.35183564  1
  F  F50  1  0.87433887  0.33166555  0.57682171  1
  F  F51  1  0.82245234  0.33362662  0.89826734  1
  F  F52  1  0.59863910  0.69186783  0.15684189  1
  F  F53  1  0.58975280  0.64581144  0.35174386  1
  F  F54  1  0.58147332  0.51528840  0.60770241  1
  F  F55  1  0.58017442  0.68341870  0.90722686  1
  F  F56  1  0.42175273  0.94715847  0.09710896  1
  F  F57  1  0.39756500  0.93574618  0.33714465  1
  F  F58  1  0.35939034  0.82489484  0.61063301  1
  F  F59  1  0.34677738  0.92538531  0.81004842  1
  F  F60  1  0.83486985  0.86420567  0.13145192  1
  F  F61  1  0.85250534  0.79006076  0.42763187  1
  F  F62  1  0.75829835  0.82152272  0.60862356  1
  F  F63  1  0.91457870  0.93621736  0.86797481  1
  F  F64  1  0.93482161  0.09259773  0.10880124  1
  F  F65  1  0.86599508  0.16443187  0.41842358  1
  F  F66  1  0.88595169  0.11541002  0.58139629  1
  F  F67  1  0.92198651  0.15400112  0.92734460  1
  F  F68  1  0.36797804  0.16729519  0.13755536  1
  F  F69  1  0.38222937  0.14979151  0.34930153  1
  F  F70  1  0.33849955  0.19029240  0.56299642  1
  F  F71  1  0.32279214  0.13448079  0.83398388  1
  F  F72  1  0.17452144  0.33412532  0.11079700  1
  F  F73  1  0.11689377  0.47407080  0.36008774  1
  F  F74  1  0.12315257  0.35967733  0.59434327  1
  F  F75  1  0.20539844  0.35971595  0.85994281  1
  F  F76  1  0.91313805  0.67432892  0.06799893  1
  F  F77  1  0.93760150  0.62298581  0.34296369  1
  F  F78  1  0.96433218  0.59752939  0.58775445  1
  F  F79  1  0.91803262  0.52469545  0.87552197  1
  F  F80  1  0.61785487  0.43978979  0.12262702  1
  F  F81  1  0.59030174  0.41727926  0.37300103  1
  F  F82  1  0.67953911  0.32940116  0.64308551  1
  F  F83  1  0.62204814  0.36925752  0.94178102  1
  F  F84  1  0.38841510  0.60714616  0.12049731  1
  F  F85  1  0.36846287  0.70102322  0.30471115  1
  F  F86  1  0.36608658  0.61515062  0.59834636  1
  F  F87  1  0.40828606  0.63978952  0.82941842  1
  F  F88  1  0.23719239  0.86866677  0.03643281  1
  F  F89  1  0.20270996  0.86974496  0.36235073  1
  F  F90  1  0.13770432  0.88777053  0.66537400  1
  F  F91  1  0.09330181  0.84774916  0.81428518  1
  F  F92  1  0.64583564  0.90413259  0.06856908  1
  F  F93  1  0.65096125  0.83006419  0.42614624  1
  F  F94  1  0.56600130  0.91703206  0.65454071  1
  F  F95  1  0.73692914  0.82281002  0.90509329  1
  In  In96  1  0.00281281  0.00879901  0.98734202  1
  In  In97  1  0.04475205  0.02206962  0.25690211  1
  In  In98  1  0.98967719  0.03156322  0.49310304  1
  In  In99  1  0.00609025  0.97474232  0.73464030  1
  In  In100  1  0.51758641  0.98140118  0.99380913  1
  In  In101  1  0.53617085  0.00716049  0.26860036  1
  In  In102  1  0.49318899  0.98786028  0.53061731  1
  In  In103  1  0.50019713  0.99948310  0.77666971  1
  In  In104  1  0.27139768  0.26667040  0.99981170  1
  In  In105  1  0.27141512  0.24277851  0.24864350  1
  In  In106  1  0.23147977  0.28766812  0.48326775  1
  In  In107  1  0.21403736  0.24193711  0.76257060  1
  In  In108  1  0.98300551  0.53073415  0.01188707  1
  In  In109  1  0.02408692  0.54553095  0.24768002  1
  In  In110  1  0.99834565  0.50714493  0.47488116  1
  In  In111  1  0.97025999  0.47234298  0.75194824  1
  In  In112  1  0.76434809  0.23601491  0.99741342  1
  In  In113  1  0.74288300  0.22818732  0.26309658  1
  In  In114  1  0.73648501  0.22184806  0.51748168  1
  In  In115  1  0.74876427  0.25340342  0.75230506  1
  In  In116  1  0.49900273  0.49248380  0.01976433  1
  In  In117  1  0.48385136  0.48737615  0.24460576  1
  In  In118  1  0.47104334  0.49954394  0.50210749  1
  In  In119  1  0.50966195  0.49775871  0.76594782  1
  In  In120  1  0.21639476  0.71077032  0.98598670  1
  In  In121  1  0.23575825  0.80163713  0.25126892  1
  In  In122  1  0.26388982  0.75139844  0.50159990  1
  In  In123  1  0.20274278  0.73626736  0.73464762  1
  In  In124  1  0.69018611  0.72670816  0.02607369  1
  In  In125  1  0.71629871  0.74313344  0.25849457  1
  In  In126  1  0.71652782  0.70900627  0.51085963  1
  In  In127  1  0.68984188  0.72435936  0.79978687  1
  Sn  Sn128  1  0.01212607  0.23859411  0.11656290  1
  Sn  Sn129  1  0.97520630  0.25734097  0.37274956  1
  Sn  Sn130  1  0.99228641  0.23528175  0.61659530  1
  Sn  Sn131  1  0.01908026  0.28041157  0.90856778  1
  Sn  Sn132  1  0.51266248  0.23612160  0.13023957  1
  Sn  Sn133  1  0.50263887  0.25959312  0.38101661  1
  Sn  Sn134  1  0.45234696  0.26271402  0.62330969  1
  Sn  Sn135  1  0.52180135  0.26117996  0.89497472  1
  Sn  Sn136  1  0.24831134  0.48426031  0.12623933  1
  Sn  Sn137  1  0.25531616  0.55191574  0.36383706  1
  Sn  Sn138  1  0.21113845  0.49652202  0.61940843  1
  Sn  Sn139  1  0.28166837  0.50429980  0.86351524  1
  Sn  Sn140  1  0.00361540  0.78969452  0.11086283  1
  Sn  Sn141  1  0.98717527  0.77042846  0.36906981  1
  Sn  Sn142  1  0.99772047  0.75055980  0.59543025  1
  Sn  Sn143  1  0.98346084  0.73767691  0.84698328  1
  Sn  Sn144  1  0.76177257  0.48938669  0.14944530  1
  Sn  Sn145  1  0.72921668  0.49289257  0.37884255  1
  Sn  Sn146  1  0.73701365  0.47067219  0.60900300  1
  Sn  Sn147  1  0.75957646  0.48002624  0.88879097  1
  Sn  Sn148  1  0.45220385  0.75248367  0.14246056  1
  Sn  Sn149  1  0.48493458  0.76105303  0.37820405  1
  Sn  Sn150  1  0.46850420  0.72058481  0.64551393  1
  Sn  Sn151  1  0.44563492  0.76564483  0.89578807  1
  Sn  Sn152  1  0.27237959  0.00362537  0.09341982  1
  Sn  Sn153  1  0.27602033  0.01654936  0.38502751  1
  Sn  Sn154  1  0.24148954  0.99495779  0.62288689  1
  Sn  Sn155  1  0.23048105  0.01275309  0.86578694  1
  Sn  Sn156  1  0.76287724  0.00187848  0.11252843  1
  Sn  Sn157  1  0.74271389  0.96059554  0.40615544  1
  Sn  Sn158  1  0.72001843  0.96608624  0.64441579  1
  Sn  Sn159  1  0.76180845  0.97405309  0.87374632  1
