# generated using pymatgen
data_InSnCl3
_symmetry_space_group_name_H-M   'P 1'
_cell_length_a   15.71913648
_cell_length_b   15.71913648
_cell_length_c   22.23021500
_cell_angle_alpha   90.00000000
_cell_angle_beta   90.00000000
_cell_angle_gamma   90.00000000
_symmetry_Int_Tables_number   1
_chemical_formula_structural   InSnCl3
_chemical_formula_sum   'In32 Sn32 Cl96'
_cell_volume   5492.89164998
_cell_formula_units_Z   32
loop_
 _symmetry_equiv_pos_site_id
 _symmetry_equiv_pos_as_xyz
  1  'x, y, z'
loop_
 _atom_site_type_symbol
 _atom_site_label
 _atom_site_symmetry_multiplicity
 _atom_site_fract_x
 _atom_site_fract_y
 _atom_site_fract_z
 _atom_site_occupancy
  Cl  Cl0  1  0.97731134  0.30288957  0.00578756  1
  Cl  Cl1  1  0.03312309  0.29279867  0.25792521  1
  Cl  Cl2  1  0.94435877  0.28317745  0.50757340  1
  Cl  Cl3  1  0.01462116  0.24624234  0.75511101  1
  Cl  Cl4  1  0.47716815  0.31814270  0.02409486  1
  Cl  Cl5  1  0.53365218  0.17083284  0.26981831  1
  Cl  Cl6  1  0.47798521  0.31376062  0.51295513  1
  Cl  Cl7  1  0.52215310  0.23561853  0.76700303  1
  Cl  Cl8  1  0.22969419  0.43211493  0.98970140  1
  Cl  Cl9  1  0.24184075  0.54493895  0.23972869  1
  Cl  Cl10  1  0.26405140  0.46392200  0.49453029  1
  Cl  Cl11  1  0.26634182  0.57271835  0.74161902  1
  Cl  Cl12  1  0.99124782  0.82687257  0.98768385  1
  Cl  Cl13  1  0.00347112  0.68987616  0.23525289  1
  Cl  Cl14  1  -0.00684236  0.81766158  0.48378609  1
  Cl  Cl15  1  0.05083989  0.74713981  0.73601068  1
  Cl  Cl16  1  0.72336298  0.43704411  0.00869419  1
  Cl  Cl17  1  0.76563949  0.51959594  0.25614369  1
  Cl  Cl18  1  0.76408241  0.50238998  0.51563775  1
  Cl  Cl19  1  0.78013184  0.56616315  0.76955045  1
  Cl  Cl20  1  0.48643808  0.81161926  0.00722422  1
  Cl  Cl21  1  0.43029694  0.72562874  0.25515601  1
  Cl  Cl22  1  0.55589897  0.74352879  0.50603927  1
  Cl  Cl23  1  0.51634611  0.68117496  0.76198008  1
  Cl  Cl24  1  0.21792970  0.94295782  0.00598050  1
  Cl  Cl25  1  0.29930326  0.05251035  0.25068388  1
  Cl  Cl26  1  0.22376735  0.96601148  0.49536268  1
  Cl  Cl27  1  0.29733399  0.01805669  0.75453823  1
  Cl  Cl28  1  0.72416650  0.93511484  0.98402239  1
  Cl  Cl29  1  0.76064225  0.06363080  0.23060877  1
  Cl  Cl30  1  0.72524120  0.92238905  0.47530780  1
  Cl  Cl31  1  0.74604098  0.02294386  0.72964078  1
  Cl  Cl32  1  0.14524048  0.16045033  0.06794125  1
  Cl  Cl33  1  0.09557660  0.11299164  0.34779990  1
  Cl  Cl34  1  0.15217881  0.13280329  0.59302394  1
  Cl  Cl35  1  0.18546345  0.13631142  0.88225451  1
  Cl  Cl36  1  0.63920533  0.18469924  0.10566440  1
  Cl  Cl37  1  0.58989722  0.10744442  0.42698722  1
  Cl  Cl38  1  0.63180226  0.09582526  0.59525113  1
  Cl  Cl39  1  0.67679478  0.14089476  0.89672620  1
  Cl  Cl40  1  0.32006522  0.35036776  0.16228243  1
  Cl  Cl41  1  0.37158200  0.41062525  0.35520827  1
  Cl  Cl42  1  0.35297277  0.33483974  0.65387533  1
  Cl  Cl43  1  0.37803930  0.35099749  0.86658626  1
  Cl  Cl44  1  0.14519256  0.67359570  0.10195837  1
  Cl  Cl45  1  0.08828602  0.62181373  0.42860552  1
  Cl  Cl46  1  0.17475441  0.65810789  0.60230850  1
  Cl  Cl47  1  0.16190474  0.63560039  0.92893615  1
  Cl  Cl48  1  0.83957019  0.35347702  0.14019170  1
  Cl  Cl49  1  0.90449603  0.43761731  0.37381137  1
  Cl  Cl50  1  0.85079476  0.33438847  0.65718253  1
  Cl  Cl51  1  0.87307508  0.34540268  0.86183736  1
  Cl  Cl52  1  0.64048481  0.66101151  0.09004161  1
  Cl  Cl53  1  0.56979683  0.59328646  0.34984378  1
  Cl  Cl54  1  0.68203809  0.65779658  0.63234193  1
  Cl  Cl55  1  0.66815025  0.65083257  0.91419750  1
  Cl  Cl56  1  0.33774670  0.86107514  0.13601112  1
  Cl  Cl57  1  0.40984882  0.92997036  0.37614942  1
  Cl  Cl58  1  0.37056334  0.83647794  0.59173908  1
  Cl  Cl59  1  0.34041708  0.80560421  0.84395325  1
  Cl  Cl60  1  0.83882577  0.88111879  0.15134905  1
  Cl  Cl61  1  0.86334452  0.88881784  0.33210932  1
  Cl  Cl62  1  0.86130384  0.82507238  0.66189298  1
  Cl  Cl63  1  0.87191773  0.83225179  0.84386256  1
  Cl  Cl64  1  0.91821025  0.11205250  0.09603935  1
  Cl  Cl65  1  0.84246599  0.10164658  0.40422864  1
  Cl  Cl66  1  0.86922366  0.09154632  0.58854581  1
  Cl  Cl67  1  0.91545868  0.11682187  0.87115570  1
  Cl  Cl68  1  0.38133138  0.08324453  0.07828332  1
  Cl  Cl69  1  0.32862203  0.15141494  0.39839693  1
  Cl  Cl70  1  0.38484253  0.09872880  0.58192877  1
  Cl  Cl71  1  0.41904627  0.12922418  0.89240426  1
  Cl  Cl72  1  0.09779060  0.43035726  0.12928220  1
  Cl  Cl73  1  0.13660376  0.32508979  0.40270529  1
  Cl  Cl74  1  0.07396561  0.39056226  0.62428871  1
  Cl  Cl75  1  0.09151263  0.43581521  0.85896435  1
  Cl  Cl76  1  0.87751379  0.57768888  0.10216648  1
  Cl  Cl77  1  0.81146055  0.65859587  0.38600324  1
  Cl  Cl78  1  0.90950238  0.57838837  0.62972066  1
  Cl  Cl79  1  0.90790537  0.62730890  0.92463320  1
  Cl  Cl80  1  0.57018513  0.38491073  0.17405666  1
  Cl  Cl81  1  0.66726369  0.31128836  0.37238167  1
  Cl  Cl82  1  0.57376541  0.42144221  0.64999645  1
  Cl  Cl83  1  0.60694778  0.44175970  0.85543869  1
  Cl  Cl84  1  0.40794208  0.62916672  0.09408841  1
  Cl  Cl85  1  0.33294812  0.63284288  0.39779332  1
  Cl  Cl86  1  0.39716857  0.57717460  0.60200114  1
  Cl  Cl87  1  0.41534033  0.60544930  0.90635338  1
  Cl  Cl88  1  0.08570984  0.88128506  0.16316549  1
  Cl  Cl89  1  0.14880791  0.82363905  0.35598228  1
  Cl  Cl90  1  0.07484996  0.90841583  0.62384154  1
  Cl  Cl91  1  0.11849199  0.92074524  0.85115409  1
  Cl  Cl92  1  0.59935436  0.94076709  0.13053302  1
  Cl  Cl93  1  0.62298977  0.82742625  0.31449873  1
  Cl  Cl94  1  0.58915302  0.87848506  0.64968328  1
  Cl  Cl95  1  0.59384096  0.92924499  0.84510649  1
  In  In96  1  0.04802821  0.01597209  0.96836304  1
  In  In97  1  0.94621871  0.99622994  0.23074460  1
  In  In98  1  0.02809727  0.00821251  0.50929834  1
  In  In99  1  0.97196100  0.93455094  0.74948067  1
  In  In100  1  0.53456358  -0.00070242  0.00491237  1
  In  In101  1  0.47945580  0.97908834  0.25089082  1
  In  In102  1  0.51014792  0.97486575  0.51689858  1
  In  In103  1  0.54860783  0.02967874  0.73125722  1
  In  In104  1  0.29806164  0.23562137  0.98606931  1
  In  In105  1  0.23194750  0.24214474  0.29264643  1
  In  In106  1  0.28181483  0.25196168  0.51948777  1
  In  In107  1  0.31181476  0.21121430  0.78069001  1
  In  In108  1  0.03758414  0.50020463  -0.00102631  1
  In  In109  1  0.96104138  0.48209760  0.22849048  1
  In  In110  1  0.96797693  0.47665198  0.50544283  1
  In  In111  1  0.97249750  0.44853230  0.73559820  1
  In  In112  1  0.78364425  0.25400250  0.01690421  1
  In  In113  1  0.70478624  0.25732380  0.23240573  1
  In  In114  1  0.75935415  0.20805440  0.49765471  1
  In  In115  1  0.80556216  0.21247194  0.77987818  1
  In  In116  1  0.53780160  0.52649669  0.99687175  1
  In  In117  1  0.44514768  0.52158663  0.25218287  1
  In  In118  1  0.45303922  0.50495875  0.47522466  1
  In  In119  1  0.46895382  0.48961617  0.76366302  1
  In  In120  1  0.28494751  0.74983601  0.01279182  1
  In  In121  1  0.21845081  0.74482688  0.22677875  1
  In  In122  1  0.22253961  0.75425720  0.47982802  1
  In  In123  1  0.24665948  0.75885255  0.71710061  1
  In  In124  1  0.78646790  0.73767383  0.00854709  1
  In  In125  1  0.77690453  0.74045303  0.26285476  1
  In  In126  1  0.74947871  0.73190599  0.51103596  1
  In  In127  1  0.71725599  0.74616304  0.75131939  1
  Sn  Sn128  1  0.01711719  0.24507529  0.11247760  1
  Sn  Sn129  1  0.00005514  0.24789814  0.36714506  1
  Sn  Sn130  1  0.98698739  0.24807421  0.62087068  1
  Sn  Sn131  1  0.01484313  0.25504748  0.87311370  1
  Sn  Sn132  1  0.48555466  0.25577550  0.13198210  1
  Sn  Sn133  1  0.51851082  0.23829104  0.37899810  1
  Sn  Sn134  1  0.50278635  0.27774540  0.62798423  1
  Sn  Sn135  1  0.52135582  0.26203704  0.88305382  1
  Sn  Sn136  1  0.25074898  0.49128866  0.12619594  1
  Sn  Sn137  1  0.23257546  0.49936681  0.38064087  1
  Sn  Sn138  1  0.25122965  0.51287211  0.62952731  1
  Sn  Sn139  1  0.24033435  0.50431829  0.88349146  1
  Sn  Sn140  1  0.00039337  0.75056410  0.12561133  1
  Sn  Sn141  1  0.00420304  0.74750247  0.37759993  1
  Sn  Sn142  1  0.00250813  0.75174118  0.62310297  1
  Sn  Sn143  1  0.00666490  0.75004118  0.88492103  1
  Sn  Sn144  1  0.74118588  0.48969913  0.12374104  1
  Sn  Sn145  1  0.75054987  0.50193285  0.37456025  1
  Sn  Sn146  1  0.75679186  0.50608088  0.63444897  1
  Sn  Sn147  1  0.75502447  0.51422994  0.88147328  1
  Sn  Sn148  1  0.50604636  0.75846686  0.11921378  1
  Sn  Sn149  1  0.49459186  0.74154055  0.36218016  1
  Sn  Sn150  1  0.50118174  0.73849812  0.61770941  1
  Sn  Sn151  1  0.49080940  0.74478994  0.87013861  1
  Sn  Sn152  1  0.24784890  0.00125922  0.11635648  1
  Sn  Sn153  1  0.26072515  0.00662453  0.36535793  1
  Sn  Sn154  1  0.25373640  0.00176361  0.60946990  1
  Sn  Sn155  1  0.27001291  0.98720205  0.86799132  1
  Sn  Sn156  1  0.74780732  0.01621338  0.11712605  1
  Sn  Sn157  1  0.73355334  0.98872152  0.36747770  1
  Sn  Sn158  1  0.74780572  0.98030686  0.61310858  1
  Sn  Sn159  1  0.74283094  0.99089015  0.87356893  1
