# generated using pymatgen
data_InSnBr3
_symmetry_space_group_name_H-M   'P 1'
_cell_length_a   16.44903897
_cell_length_b   16.44903897
_cell_length_c   23.26245300
_cell_angle_alpha   90.00000000
_cell_angle_beta   90.00000000
_cell_angle_gamma   90.00000000
_symmetry_Int_Tables_number   1
_chemical_formula_structural   InSnBr3
_chemical_formula_sum   'In32 Sn32 Br96'
_cell_volume   6294.14245014
_cell_formula_units_Z   32
loop_
 _symmetry_equiv_pos_site_id
 _symmetry_equiv_pos_as_xyz
  1  'x, y, z'
loop_
 _atom_site_type_symbol
 _atom_site_label
 _atom_site_symmetry_multiplicity
 _atom_site_fract_x
 _atom_site_fract_y
 _atom_site_fract_z
 _atom_site_occupancy
  Br  Br0  1  0.02417467  0.19999600  0.00480705  1
  Br  Br1  1  0.99991829  0.28351037  0.25356977  1
  Br  Br2  1  0.94990827  0.21334405  0.50471541  1
  Br  Br3  1  0.01080068  0.29653349  0.75289425  1
  Br  Br4  1  0.44188369  0.22694124  0.01102237  1
  Br  Br5  1  0.54521190  0.25897616  0.26023871  1
  Br  Br6  1  0.45023184  0.22931717  0.51082876  1
  Br  Br7  1  0.54904524  0.23221740  0.76049100  1
  Br  Br8  1  0.31255979  0.50362689  0.00352113  1
  Br  Br9  1  0.19518626  0.52657164  0.25732536  1
  Br  Br10  1  0.32390672  0.50345603  0.50425130  1
  Br  Br11  1  0.19276212  0.49552199  0.75231164  1
  Br  Br12  1  0.94704242  0.73154342  0.01083274  1
  Br  Br13  1  0.05171804  0.76685494  0.25834290  1
  Br  Br14  1  0.95156366  0.72569435  0.50976424  1
  Br  Br15  1  0.05456612  0.72529597  0.76284313  1
  Br  Br16  1  0.77749459  0.51712742  0.00866400  1
  Br  Br17  1  0.67935341  0.52221296  0.25694707  1
  Br  Br18  1  0.80711153  0.48145806  0.50304137  1
  Br  Br19  1  0.71685893  0.47363926  0.75313826  1
  Br  Br20  1  0.47084116  0.71239223  0.99494489  1
  Br  Br21  1  0.48897383  0.78720728  0.24659743  1
  Br  Br22  1  0.48585069  0.72242458  0.50029501  1
  Br  Br23  1  0.49166782  0.81982696  0.74628093  1
  Br  Br24  1  0.23554399  0.05120315  0.98909357  1
  Br  Br25  1  0.25117543  0.98620694  0.24671463  1
  Br  Br26  1  0.21289410  0.05050508  0.50134750  1
  Br  Br27  1  0.24260764  0.93251316  0.74462330  1
  Br  Br28  1  0.81884120  0.97217025  0.00229536  1
  Br  Br29  1  0.68560248  0.00355812  0.24968539  1
  Br  Br30  1  0.81326608  0.96418560  0.50268742  1
  Br  Br31  1  0.69041893  0.98628411  0.75468688  1
  Br  Br32  1  0.18204258  0.15971270  0.13968528  1
  Br  Br33  1  0.16637133  0.16606268  0.35397465  1
  Br  Br34  1  0.16188687  0.13219589  0.66068512  1
  Br  Br35  1  0.09632305  0.11590325  0.84606961  1
  Br  Br36  1  0.65831992  0.13908480  0.06677205  1
  Br  Br37  1  0.63790321  0.14932998  0.40433807  1
  Br  Br38  1  0.66041926  0.12900956  0.57896295  1
  Br  Br39  1  0.58501691  0.10414307  0.89544478  1
  Br  Br40  1  0.37226457  0.34612176  0.15113078  1
  Br  Br41  1  0.34534434  0.36163159  0.33495032  1
  Br  Br42  1  0.35679028  0.32123304  0.65276547  1
  Br  Br43  1  0.38756181  0.40512906  0.83071214  1
  Br  Br44  1  0.14628255  0.63377681  0.08502059  1
  Br  Br45  1  0.15085467  0.67195961  0.39577023  1
  Br  Br46  1  0.16151394  0.63441167  0.59716456  1
  Br  Br47  1  0.08478236  0.59868875  0.90274587  1
  Br  Br48  1  0.87307752  0.35393711  0.11644943  1
  Br  Br49  1  0.83828297  0.32890137  0.36704446  1
  Br  Br50  1  0.82849941  0.31063460  0.63605057  1
  Br  Br51  1  0.86389818  0.40127755  0.87265231  1
  Br  Br52  1  0.65446616  0.65507093  0.11448212  1
  Br  Br53  1  0.66051755  0.64371234  0.40930773  1
  Br  Br54  1  0.65669173  0.63118999  0.60546761  1
  Br  Br55  1  0.56926668  0.61537960  0.82784486  1
  Br  Br56  1  0.31792391  0.81389448  0.10944558  1
  Br  Br57  1  0.34929277  0.83743393  0.38415719  1
  Br  Br58  1  0.34389405  0.82446579  0.60740277  1
  Br  Br59  1  0.40065891  0.92508698  0.89795855  1
  Br  Br60  1  0.85771953  0.84590495  0.14838339  1
  Br  Br61  1  0.84105130  0.85638752  0.32644973  1
  Br  Br62  1  0.83986848  0.81277900  0.64524858  1
  Br  Br63  1  0.88169045  0.89483179  0.82706166  1
  Br  Br64  1  0.90666174  0.11542152  0.14893846  1
  Br  Br65  1  0.88049568  0.09769949  0.32758255  1
  Br  Br66  1  0.92077170  0.09154112  0.64917003  1
  Br  Br67  1  0.85816579  0.15251664  0.85687405  1
  Br  Br68  1  0.42754711  0.09276389  0.15130081  1
  Br  Br69  1  0.40638161  0.10759752  0.36471957  1
  Br  Br70  1  0.42331182  0.08125163  0.64067088  1
  Br  Br71  1  0.34240982  0.14158246  0.83561687  1
  Br  Br72  1  0.12428597  0.39575272  0.08206424  1
  Br  Br73  1  0.06891559  0.40404704  0.39082408  1
  Br  Br74  1  0.12973314  0.39095319  0.57644758  1
  Br  Br75  1  0.16891814  0.34955422  0.89000426  1
  Br  Br76  1  0.92151109  0.60467267  0.15217236  1
  Br  Br77  1  0.92339170  0.60595342  0.36331544  1
  Br  Br78  1  0.92976691  0.57610112  0.64339804  1
  Br  Br79  1  0.84625230  0.64176421  0.83974404  1
  Br  Br80  1  0.62430333  0.39931114  0.10528274  1
  Br  Br81  1  0.60897531  0.40825839  0.40192375  1
  Br  Br82  1  0.61723166  0.39439474  0.59368822  1
  Br  Br83  1  0.63156350  0.35281294  0.89512964  1
  Br  Br84  1  0.42091076  0.59596953  0.14290677  1
  Br  Br85  1  0.38106304  0.59882821  0.34822959  1
  Br  Br86  1  0.40943334  0.60987845  0.66148470  1
  Br  Br87  1  0.33185895  0.68182028  0.84598779  1
  Br  Br88  1  0.08930544  0.93735786  0.11330476  1
  Br  Br89  1  0.06823862  0.94679681  0.38303868  1
  Br  Br90  1  0.09782649  0.90521994  0.61505120  1
  Br  Br91  1  0.13700863  0.84750883  0.91361319  1
  Br  Br92  1  0.62758525  0.89469333  0.09966599  1
  Br  Br93  1  0.58336670  0.89988294  0.38818361  1
  Br  Br94  1  0.61852920  0.89353405  0.58357882  1
  Br  Br95  1  0.66484774  0.84431205  0.89315009  1
  In  In96  1  0.04441999  0.00454664  0.98678047  1
  In  In97  1  0.98129029  0.95618572  0.25165889  1
  In  In98  1  0.00579693  0.01943145  0.51657148  1
  In  In99  1  0.04575790  0.99837149  0.73460718  1
  In  In100  1  0.50380939  0.04395783  0.01153738  1
  In  In101  1  0.48589798  0.98182999  0.27400694  1
  In  In102  1  0.52745631  0.04606272  0.49666868  1
  In  In103  1  0.49653022  0.02834632  0.77709929  1
  In  In104  1  0.22273902  0.24799213  0.01398189  1
  In  In105  1  0.30185697  0.18921520  0.25276133  1
  In  In106  1  0.25423710  0.23730220  0.55299995  1
  In  In107  1  0.21898808  0.26907926  0.76729031  1
  In  In108  1  0.98542958  0.53707546  0.02658435  1
  In  In109  1  0.00744764  0.48509499  0.27210734  1
  In  In110  1  0.99709990  0.53597703  0.49776567  1
  In  In111  1  0.99780147  0.53352896  0.77822170  1
  In  In112  1  0.75115624  0.32272108  0.01111132  1
  In  In113  1  0.81343145  0.23416644  0.24329623  1
  In  In114  1  0.75102681  0.28791084  0.49828539  1
  In  In115  1  0.75075478  0.28554279  0.78685219  1
  In  In116  1  0.50466241  0.53155948  0.02870403  1
  In  In117  1  0.48193541  0.44374337  0.24968498  1
  In  In118  1  0.54520663  0.53398156  0.50397918  1
  In  In119  1  0.51356570  0.48176508  0.73995846  1
  In  In120  1  0.26817736  0.71874811  0.98466879  1
  In  In121  1  0.26079088  0.72609784  0.28555606  1
  In  In122  1  0.29159655  0.70575162  0.49659436  1
  In  In123  1  0.25235627  0.72752269  0.71974420  1
  In  In124  1  0.75028012  0.78782928  0.02063762  1
  In  In125  1  0.69677472  0.80295237  0.21915310  1
  In  In126  1  0.74599223  0.76678034  0.52335817  1
  In  In127  1  0.73764708  0.78756173  0.77086270  1
  Sn  Sn128  1  0.00909727  0.24695919  0.12280032  1
  Sn  Sn129  1  0.99036044  0.25361692  0.37546133  1
  Sn  Sn130  1  0.98105305  0.24488100  0.62608873  1
  Sn  Sn131  1  0.99554615  0.24872979  0.86854919  1
  Sn  Sn132  1  0.50200455  0.24162069  0.12493101  1
  Sn  Sn133  1  0.50583350  0.24875603  0.37811882  1
  Sn  Sn134  1  0.49886100  0.23119947  0.62752069  1
  Sn  Sn135  1  0.49619766  0.24878700  0.87458222  1
  Sn  Sn136  1  0.24827659  0.50163916  0.11440376  1
  Sn  Sn137  1  0.25095709  0.49273680  0.36957969  1
  Sn  Sn138  1  0.25338294  0.49175273  0.61347371  1
  Sn  Sn139  1  0.25138064  0.49464856  0.86469230  1
  Sn  Sn140  1  0.99941153  0.74986872  0.12680290  1
  Sn  Sn141  1  0.00292491  0.75449400  0.37399394  1
  Sn  Sn142  1  0.98973927  0.73256697  0.62758766  1
  Sn  Sn143  1  0.00646625  0.74642438  0.87942887  1
  Sn  Sn144  1  0.74749446  0.51519181  0.13077961  1
  Sn  Sn145  1  0.73977612  0.50752243  0.36886349  1
  Sn  Sn146  1  0.75517446  0.48899246  0.61992886  1
  Sn  Sn147  1  0.73877729  0.51542107  0.86980162  1
  Sn  Sn148  1  0.47372384  0.75317122  0.11839341  1
  Sn  Sn149  1  0.49619845  0.75437360  0.37454510  1
  Sn  Sn150  1  0.49492624  0.75033322  0.62916538  1
  Sn  Sn151  1  0.48424551  0.75575890  0.86067003  1
  Sn  Sn152  1  0.24568502  0.00024931  0.12711742  1
  Sn  Sn153  1  0.22417336  0.01570322  0.38219418  1
  Sn  Sn154  1  0.24866871  0.98824877  0.62918351  1
  Sn  Sn155  1  0.25573661  0.00132381  0.87190916  1
  Sn  Sn156  1  0.75610837  0.01265661  0.10916502  1
  Sn  Sn157  1  0.75063928  0.99328873  0.36056027  1
  Sn  Sn158  1  0.75032164  0.99172803  0.61279567  1
  Sn  Sn159  1  0.75344057  0.98948064  0.86726195  1
