# generated using pymatgen
data_ZnInF3
_symmetry_space_group_name_H-M   'P 1'
_cell_length_a   11.81766774
_cell_length_b   11.81766774
_cell_length_c   16.71270600
_cell_angle_alpha   90.00000000
_cell_angle_beta   90.00000000
_cell_angle_gamma   90.00000000
_symmetry_Int_Tables_number   1
_chemical_formula_structural   ZnInF3
_chemical_formula_sum   'Zn32 In32 F96'
_cell_volume   2334.05090967
_cell_formula_units_Z   32
loop_
 _symmetry_equiv_pos_site_id
 _symmetry_equiv_pos_as_xyz
  1  'x, y, z'
loop_
 _atom_site_type_symbol
 _atom_site_label
 _atom_site_symmetry_multiplicity
 _atom_site_fract_x
 _atom_site_fract_y
 _atom_site_fract_z
 _atom_site_occupancy
  F  F0  1  0.00643175  0.25035259  0.00001766  1
  F  F1  1  0.00710108  0.25012744  0.25007324  1
  F  F2  1  0.00644766  0.25047321  0.50004909  1
  F  F3  1  0.00677655  0.24840592  0.75005371  1
  F  F4  1  0.50723371  0.24993625  -0.00002547  1
  F  F5  1  0.50627267  0.25035292  0.24999183  1
  F  F6  1  0.50724531  0.25068155  0.50005598  1
  F  F7  1  0.50601577  0.24869151  0.75008521  1
  F  F8  1  0.25627885  0.49946481  0.00004983  1
  F  F9  1  0.25707301  0.50044461  0.24996726  1
  F  F10  1  0.25665411  0.50037650  0.50007442  1
  F  F11  1  0.25662229  0.49876881  0.75007190  1
  F  F12  1  0.00724733  0.75001739  0.00007417  1
  F  F13  1  0.00623678  0.75008846  0.24994353  1
  F  F14  1  0.00721759  0.75025289  0.50003107  1
  F  F15  1  0.00604951  0.74847356  0.75007471  1
  F  F16  1  0.75646044  0.49821260  -0.00000890  1
  F  F17  1  0.75682589  0.50160777  0.25001939  1
  F  F18  1  0.75677174  0.49891479  0.50006533  1
  F  F19  1  0.75655965  0.50026731  0.75001261  1
  F  F20  1  0.50639045  0.74999651  -0.00002281  1
  F  F21  1  0.50701853  0.75040186  0.25002453  1
  F  F22  1  0.50641322  0.75077294  0.50006761  1
  F  F23  1  0.50677109  0.74867164  0.75006977  1
  F  F24  1  0.25643118  0.99848859  0.00003438  1
  F  F25  1  0.25701091  0.00141672  0.25003536  1
  F  F26  1  0.25672356  0.99912346  0.50006167  1
  F  F27  1  0.25673963  -0.00001889  0.75008924  1
  F  F28  1  0.75649088  -0.00044120  -0.00003073  1
  F  F29  1  0.75696613  0.00045578  0.24995794  1
  F  F30  1  0.75672413  0.00019632  0.50006671  1
  F  F31  1  0.75675298  0.99896182  0.75008768  1
  F  F32  1  0.12853589  0.12790568  0.12507510  1
  F  F33  1  0.12862848  0.12801626  0.37545235  1
  F  F34  1  0.12827684  0.12783963  0.62467739  1
  F  F35  1  0.12816058  0.12776251  0.87551110  1
  F  F36  1  0.62851641  0.12792316  0.12544356  1
  F  F37  1  0.62872870  0.12818677  0.37499396  1
  F  F38  1  0.62837351  0.12791076  0.62503208  1
  F  F39  1  0.62830907  0.12782766  0.87511575  1
  F  F40  1  0.37858359  0.37793051  0.12511673  1
  F  F41  1  0.37855491  0.37811738  0.37553628  1
  F  F42  1  0.37826737  0.37786696  0.62490517  1
  F  F43  1  0.37815325  0.37758992  0.87558473  1
  F  F44  1  0.12845066  0.62781067  0.12546164  1
  F  F45  1  0.12867709  0.62809508  0.37506484  1
  F  F46  1  0.12826264  0.62783479  0.62510466  1
  F  F47  1  0.12819381  0.62766966  0.87521141  1
  F  F48  1  0.87859761  0.37795872  0.12601640  1
  F  F49  1  0.87861591  0.37806303  0.37446963  1
  F  F50  1  0.87819768  0.37763498  0.62560515  1
  F  F51  1  0.87807992  0.37760294  0.87459483  1
  F  F52  1  0.62831372  0.62783391  0.12500712  1
  F  F53  1  0.62855697  0.62805542  0.37555652  1
  F  F54  1  0.62825038  0.62784253  0.62482195  1
  F  F55  1  0.62811270  0.62762221  0.87571860  1
  F  F56  1  0.37857335  0.87796952  0.12583049  1
  F  F57  1  0.37875326  0.87822763  0.37462040  1
  F  F58  1  0.37820940  0.87788572  0.62550551  1
  F  F59  1  0.37795078  0.87757647  0.87467757  1
  F  F60  1  0.87859816  0.87806243  0.12507277  1
  F  F61  1  0.87858572  0.87792487  0.37529704  1
  F  F62  1  0.87821068  0.87763111  0.62477097  1
  F  F63  1  0.87823196  0.87776309  0.87543705  1
  F  F64  1  0.87872862  0.12234326  0.12493454  1
  F  F65  1  0.87861819  0.12221247  0.37527582  1
  F  F66  1  0.87890266  0.12205121  0.62524416  1
  F  F67  1  0.87885995  0.12226249  0.87511946  1
  F  F68  1  0.37874657  0.12228232  0.12419085  1
  F  F69  1  0.37864178  0.12236656  0.37613602  1
  F  F70  1  0.37888939  0.12213937  0.62459921  1
  F  F71  1  0.37890264  0.12204194  0.87593008  1
  F  F72  1  0.12871696  0.37224323  0.12544087  1
  F  F73  1  0.12880018  0.37228939  0.37497391  1
  F  F74  1  0.12873091  0.37233389  0.62560611  1
  F  F75  1  0.12886663  0.37221152  0.87474423  1
  F  F76  1  0.87863499  0.62231219  0.12428346  1
  F  F77  1  0.87846092  0.62248605  0.37605275  1
  F  F78  1  0.87890730  0.62205823  0.62458017  1
  F  F79  1  0.87891545  0.62218569  0.87598607  1
  F  F80  1  0.62863702  0.37242003  0.12556198  1
  F  F81  1  0.62857871  0.37237120  0.37478513  1
  F  F82  1  0.62870240  0.37230073  0.62595411  1
  F  F83  1  0.62895161  0.37223308  0.87464188  1
  F  F84  1  0.37873282  0.62233310  0.12507058  1
  F  F85  1  0.37863665  0.62241232  0.37539859  1
  F  F86  1  0.37882996  0.62224712  0.62546971  1
  F  F87  1  0.37881560  0.62211286  0.87514112  1
  F  F88  1  0.12879101  0.87226025  0.12553715  1
  F  F89  1  0.12866828  0.87226230  0.37473540  1
  F  F90  1  0.12865627  0.87230234  0.62588384  1
  F  F91  1  0.12884298  0.87216451  0.87455179  1
  F  F92  1  0.62876308  0.87229752  0.12526484  1
  F  F93  1  0.62888714  0.87228461  0.37505182  1
  F  F94  1  0.62873564  0.87225018  0.62556657  1
  F  F95  1  0.62888531  0.87212822  0.87498242  1
  In  In96  1  -0.01212574  0.00125830  -0.00002288  1
  In  In97  1  -0.01225555  -0.00000629  0.24991363  1
  In  In98  1  -0.01252175  0.00032941  0.49999471  1
  In  In99  1  0.98860792  0.00305788  0.74992049  1
  In  In100  1  0.48801781  0.00198677  -0.00034713  1
  In  In101  1  0.48780956  0.99909284  0.24963826  1
  In  In102  1  0.48737682  0.00041408  0.49973213  1
  In  In103  1  0.48825087  0.00248099  0.74960626  1
  In  In104  1  0.23818702  0.25169578  -0.00036675  1
  In  In105  1  0.23772602  0.24986779  0.24972157  1
  In  In106  1  0.23772998  0.25033488  0.49972505  1
  In  In107  1  0.23844236  0.25310712  0.74970124  1
  In  In108  1  0.98836599  0.50191367  -0.00041441  1
  In  In109  1  0.98774488  0.49938780  0.24948223  1
  In  In110  1  0.98731323  0.50060641  0.49964533  1
  In  In111  1  0.98873152  0.50288439  0.74963518  1
  In  In112  1  0.73835388  0.25168345  -0.00068255  1
  In  In113  1  0.73747688  0.24979013  0.24962354  1
  In  In114  1  0.73758770  0.25036347  0.49976991  1
  In  In115  1  0.73865391  0.25293562  0.74958731  1
  In  In116  1  0.48829575  0.50132044  -0.00078738  1
  In  In117  1  0.48798088  0.49979908  0.24921479  1
  In  In118  1  0.48783889  0.50030615  0.49938120  1
  In  In119  1  0.48856584  0.50277281  0.74911255  1
  In  In120  1  0.23828425  0.75155850  -0.00037605  1
  In  In121  1  0.23766861  0.74968616  0.24959572  1
  In  In122  1  0.23772722  0.75022572  0.49955136  1
  In  In123  1  0.23846562  0.75297622  0.74976315  1
  In  In124  1  0.73793728  0.75166703  0.99950720  1
  In  In125  1  0.73799398  0.74993602  0.24961411  1
  In  In126  1  0.73803547  0.75079073  0.49945523  1
  In  In127  1  0.73822449  0.75278491  0.74943076  1
  Zn  Zn128  1  -0.00199552  0.25024729  0.12492888  1
  Zn  Zn129  1  -0.00209418  0.25014200  0.37501237  1
  Zn  Zn130  1  0.99799681  0.25059389  0.62496392  1
  Zn  Zn131  1  -0.00197388  0.25071829  0.87499086  1
  Zn  Zn132  1  0.49805692  0.25025142  0.12489875  1
  Zn  Zn133  1  0.49784426  0.25017310  0.37490732  1
  Zn  Zn134  1  0.49790040  0.25055549  0.62499521  1
  Zn  Zn135  1  0.49808199  0.25065838  0.87486645  1
  Zn  Zn136  1  0.24808002  0.50026630  0.12495742  1
  Zn  Zn137  1  0.24796280  0.50021142  0.37490264  1
  Zn  Zn138  1  0.24794264  0.50062882  0.62491179  1
  Zn  Zn139  1  0.24811840  0.50068507  0.87495177  1
  Zn  Zn140  1  0.99800209  0.75028984  0.12494753  1
  Zn  Zn141  1  -0.00200631  0.75013903  0.37488863  1
  Zn  Zn142  1  -0.00199957  0.75050228  0.62500264  1
  Zn  Zn143  1  -0.00200680  0.75075702  0.87496768  1
  Zn  Zn144  1  0.74799326  0.50029319  0.12489392  1
  Zn  Zn145  1  0.74785278  0.50013734  0.37491470  1
  Zn  Zn146  1  0.74795790  0.50062917  0.62496313  1
  Zn  Zn147  1  0.74806882  0.50075923  0.87491817  1
  Zn  Zn148  1  0.49800007  0.75026238  0.12488644  1
  Zn  Zn149  1  0.49797485  0.75016810  0.37495088  1
  Zn  Zn150  1  0.49789526  0.75057043  0.62488801  1
  Zn  Zn151  1  0.49794816  0.75071644  0.87495471  1
  Zn  Zn152  1  0.24797951  0.00031882  0.12495834  1
  Zn  Zn153  1  0.24788431  0.00017839  0.37493676  1
  Zn  Zn154  1  0.24780544  0.00056179  0.62500560  1
  Zn  Zn155  1  0.24790489  0.00075675  0.87503009  1
  Zn  Zn156  1  0.74797419  0.00036783  0.12490500  1
  Zn  Zn157  1  0.74792728  0.00025632  0.37494011  1
  Zn  Zn158  1  0.74792490  0.00056001  0.62504803  1
  Zn  Zn159  1  0.74796067  0.00071229  0.87492216  1
