# generated using pymatgen
data_KBaCl3
_symmetry_space_group_name_H-M   'P 1'
_cell_length_a   17.04813519
_cell_length_b   17.04813519
_cell_length_c   24.10970300
_cell_angle_alpha   90.00000000
_cell_angle_beta   90.00000000
_cell_angle_gamma   90.00000000
_symmetry_Int_Tables_number   1
_chemical_formula_structural   KBaCl3
_chemical_formula_sum   'K32 Ba32 Cl96'
_cell_volume   7007.21788434
_cell_formula_units_Z   32
loop_
 _symmetry_equiv_pos_site_id
 _symmetry_equiv_pos_as_xyz
  1  'x, y, z'
loop_
 _atom_site_type_symbol
 _atom_site_label
 _atom_site_symmetry_multiplicity
 _atom_site_fract_x
 _atom_site_fract_y
 _atom_site_fract_z
 _atom_site_occupancy
  Ba  Ba0  1  0.99247001  0.98480078  0.00955769  1
  Ba  Ba1  1  0.99164729  0.00129712  0.26134367  1
  Ba  Ba2  1  -0.00036217  0.00443396  0.50553526  1
  Ba  Ba3  1  0.00391089  0.01109342  0.76057517  1
  Ba  Ba4  1  0.50128236  0.98831732  0.99808629  1
  Ba  Ba5  1  0.50793295  0.98559585  0.24609514  1
  Ba  Ba6  1  0.50001478  0.00987604  0.50150062  1
  Ba  Ba7  1  0.50795648  0.01741465  0.74704561  1
  Ba  Ba8  1  0.25187772  0.23800520  0.99969893  1
  Ba  Ba9  1  0.25473127  0.25182947  0.26044023  1
  Ba  Ba10  1  0.24459474  0.25343517  0.50447878  1
  Ba  Ba11  1  0.25252705  0.26406393  0.75657697  1
  Ba  Ba12  1  0.00546566  0.48141126  0.99079651  1
  Ba  Ba13  1  0.00220841  0.49277362  0.25084587  1
  Ba  Ba14  1  0.99804540  0.50146131  0.49421473  1
  Ba  Ba15  1  0.00850504  0.50155324  0.74545591  1
  Ba  Ba16  1  0.74344122  0.23751986  0.99704790  1
  Ba  Ba17  1  0.74317264  0.26234409  0.25803715  1
  Ba  Ba18  1  0.73865225  0.25991212  0.50680978  1
  Ba  Ba19  1  0.75940249  0.27027009  0.75495937  1
  Ba  Ba20  1  0.49538895  0.47827699  0.99222847  1
  Ba  Ba21  1  0.49587870  0.49126422  0.25054187  1
  Ba  Ba22  1  0.49309498  0.49749500  0.49950097  1
  Ba  Ba23  1  0.50615999  0.50821138  0.75080306  1
  Ba  Ba24  1  0.25338852  0.74645624  0.99328929  1
  Ba  Ba25  1  0.24460401  0.73858035  0.24629024  1
  Ba  Ba26  1  0.24472622  0.75244200  0.49509241  1
  Ba  Ba27  1  0.26017404  0.74962771  0.74591651  1
  Ba  Ba28  1  0.74977057  0.73594311  0.00050809  1
  Ba  Ba29  1  0.74496236  0.74382842  0.24572793  1
  Ba  Ba30  1  0.74341530  0.76502244  0.49093983  1
  Ba  Ba31  1  0.74653683  0.76375375  0.74535395  1
  Cl  Cl32  1  0.11869900  0.11553773  0.98528211  1
  Cl  Cl33  1  0.12027438  0.13260365  0.26312678  1
  Cl  Cl34  1  0.08033864  0.17117694  0.50995905  1
  Cl  Cl35  1  0.10623239  0.15846655  0.78369993  1
  Cl  Cl36  1  0.64341935  0.09271011  0.95956490  1
  Cl  Cl37  1  0.60616244  0.14005863  0.26309194  1
  Cl  Cl38  1  0.59481747  0.15938593  0.46503246  1
  Cl  Cl39  1  0.61884049  0.15556586  0.78706687  1
  Cl  Cl40  1  0.33061188  0.40606811  0.01582124  1
  Cl  Cl41  1  0.42347313  0.32173512  0.24486866  1
  Cl  Cl42  1  0.38806879  0.36011267  0.53896407  1
  Cl  Cl43  1  0.39667636  0.37003075  0.71519404  1
  Cl  Cl44  1  0.15418689  0.58929062  0.98394962  1
  Cl  Cl45  1  0.10482166  0.63571997  0.29026797  1
  Cl  Cl46  1  0.10549693  0.64197430  0.45625400  1
  Cl  Cl47  1  0.09673395  0.66473095  0.75295782  1
  Cl  Cl48  1  0.87451333  0.36296959  0.03146070  1
  Cl  Cl49  1  0.87818301  0.36998294  0.21071077  1
  Cl  Cl50  1  0.90130411  0.34665479  0.51743010  1
  Cl  Cl51  1  0.91568984  0.35028109  0.72169032  1
  Cl  Cl52  1  0.63239859  0.59655082  0.96826734  1
  Cl  Cl53  1  0.57528643  0.65946600  0.24578822  1
  Cl  Cl54  1  0.58352025  0.66037647  0.49635641  1
  Cl  Cl55  1  0.60636074  0.65668300  0.78615058  1
  Cl  Cl56  1  0.34212789  0.90325756  0.98951119  1
  Cl  Cl57  1  0.38028678  0.86007329  0.24019990  1
  Cl  Cl58  1  0.39371549  0.85973080  0.53133358  1
  Cl  Cl59  1  0.37763791  0.88882850  0.73401885  1
  Cl  Cl60  1  0.87968449  0.84698583  0.03911209  1
  Cl  Cl61  1  0.89372315  0.84707351  0.27633436  1
  Cl  Cl62  1  0.89721641  0.85718778  0.47163839  1
  Cl  Cl63  1  0.90921809  0.85029007  0.75249606  1
  Cl  Cl64  1  0.86085913  0.10891575  0.03760728  1
  Cl  Cl65  1  0.85596924  0.11936486  0.22855352  1
  Cl  Cl66  1  0.83578878  0.10000892  0.52767943  1
  Cl  Cl67  1  0.84854013  0.10648045  0.73804871  1
  Cl  Cl68  1  0.41137119  0.14975199  0.01088756  1
  Cl  Cl69  1  0.36077847  0.09705812  0.24266411  1
  Cl  Cl70  1  0.35239851  0.11043041  0.54042064  1
  Cl  Cl71  1  0.37224459  0.13444599  0.72537226  1
  Cl  Cl72  1  0.11284687  0.34446509  0.95596980  1
  Cl  Cl73  1  0.15408808  0.40018075  0.27537227  1
  Cl  Cl74  1  0.14305485  0.39709309  0.46552238  1
  Cl  Cl75  1  0.16838982  0.42381165  0.77773755  1
  Cl  Cl76  1  0.88277783  0.61264423  0.01047358  1
  Cl  Cl77  1  0.86417961  0.60942163  0.27112081  1
  Cl  Cl78  1  0.84221669  0.60444974  0.48821180  1
  Cl  Cl79  1  0.85946790  0.61742807  0.74518538  1
  Cl  Cl80  1  0.59221253  0.33091297  0.96975763  1
  Cl  Cl81  1  0.65638545  0.41649207  0.28665723  1
  Cl  Cl82  1  0.66125353  0.42517693  0.49015549  1
  Cl  Cl83  1  0.66298414  0.42200202  0.77867644  1
  Cl  Cl84  1  0.40462137  0.64335046  0.01692811  1
  Cl  Cl85  1  0.33685462  0.58250331  0.23167468  1
  Cl  Cl86  1  0.34813687  0.60558653  0.52911088  1
  Cl  Cl87  1  0.37164706  0.61956064  0.70423711  1
  Cl  Cl88  1  0.09677036  0.83502889  0.98636784  1
  Cl  Cl89  1  0.14994450  0.89788512  0.26433198  1
  Cl  Cl90  1  0.16129617  0.91570758  0.48767384  1
  Cl  Cl91  1  0.14658181  0.89252253  0.77273890  1
  Cl  Cl92  1  0.58669990  0.82263107  0.00287378  1
  Cl  Cl93  1  0.66403258  0.90245746  0.22492790  1
  Cl  Cl94  1  0.65524488  0.92125233  0.47775276  1
  Cl  Cl95  1  0.66942800  0.92916962  0.74891170  1
  Cl  Cl96  1  0.03354317  0.00488243  0.13495597  1
  Cl  Cl97  1  0.95831230  0.05503245  0.38450280  1
  Cl  Cl98  1  0.03145466  0.97755560  0.63244489  1
  Cl  Cl99  1  0.94656121  0.02255925  0.88379994  1
  Cl  Cl100  1  0.53402878  0.03076994  0.12237747  1
  Cl  Cl101  1  0.46261727  0.00351322  0.37344262  1
  Cl  Cl102  1  0.54838197  0.05165633  0.62292204  1
  Cl  Cl103  1  0.46298902  0.01473827  0.87185068  1
  Cl  Cl104  1  0.25659233  0.21814827  0.13001815  1
  Cl  Cl105  1  0.30331504  0.23235545  0.38349514  1
  Cl  Cl106  1  0.20695697  0.29229215  0.63031431  1
  Cl  Cl107  1  0.31431099  0.26973845  0.87880893  1
  Cl  Cl108  1  0.01031887  0.52784223  0.12201295  1
  Cl  Cl109  1  0.95210639  0.45375707  0.37318720  1
  Cl  Cl110  1  0.04315668  0.48814276  0.61801001  1
  Cl  Cl111  1  0.95811969  0.52375490  0.86998263  1
  Cl  Cl112  1  0.71985886  0.23668579  0.12794850  1
  Cl  Cl113  1  0.79078267  0.23180300  0.38263478  1
  Cl  Cl114  1  0.70423036  0.24457070  0.63221172  1
  Cl  Cl115  1  0.81532101  0.23411912  0.87813920  1
  Cl  Cl116  1  0.49943796  0.50326111  0.12061955  1
  Cl  Cl117  1  0.45915856  0.52536295  0.37552687  1
  Cl  Cl118  1  0.54300404  0.52968074  0.62337015  1
  Cl  Cl119  1  0.43879870  0.51826369  0.87270089  1
  Cl  Cl120  1  0.21199897  0.71614878  0.11893738  1
  Cl  Cl121  1  0.30009366  0.75716019  0.37265826  1
  Cl  Cl122  1  0.21178587  0.78086289  0.62211503  1
  Cl  Cl123  1  0.31268169  0.74974806  0.86963098  1
  Cl  Cl124  1  0.72842321  0.67838502  0.12384293  1
  Cl  Cl125  1  0.71007494  0.71294594  0.36990887  1
  Cl  Cl126  1  0.72526987  0.73435997  0.61804841  1
  Cl  Cl127  1  0.78375181  0.73927132  0.87368853  1
  K  K128  1  0.91451196  0.22752306  0.12817397  1
  K  K129  1  0.97474821  0.25242044  0.41382242  1
  K  K130  1  0.01882713  0.29843015  0.61514587  1
  K  K131  1  0.01010569  0.20200103  0.89486917  1
  K  K132  1  0.44488390  0.19537760  0.14038739  1
  K  K133  1  0.47921302  0.19257526  0.35257933  1
  K  K134  1  0.45235149  0.22618091  0.62813097  1
  K  K135  1  0.50163328  0.19982298  0.89581875  1
  K  K136  1  0.29839633  0.54535359  0.10492991  1
  K  K137  1  0.20401711  0.52048452  0.37102699  1
  K  K138  1  0.29092724  0.46883064  0.63118167  1
  K  K139  1  0.25181560  0.45410450  0.89747477  1
  K  K140  1  0.01839086  0.71539396  0.06979725  1
  K  K141  1  0.97290828  0.72940567  0.36109379  1
  K  K142  1  0.04189965  0.80054670  0.67093883  1
  K  K143  1  0.96159395  0.71311044  0.83942308  1
  K  K144  1  0.82441888  0.50755268  0.11613797  1
  K  K145  1  0.76916744  0.52053913  0.37301345  1
  K  K146  1  0.71464840  0.55397404  0.58087921  1
  K  K147  1  0.75091223  0.55513176  0.84874265  1
  K  K148  1  0.54270602  0.68363375  0.11030282  1
  K  K149  1  0.51797234  0.69915012  0.37000403  1
  K  K150  1  0.46839229  0.70396941  0.60116531  1
  K  K151  1  0.49944426  0.69710377  0.90236291  1
  K  K152  1  0.20693326  0.03762142  0.17023406  1
  K  K153  1  0.29002176  0.94607505  0.34372937  1
  K  K154  1  0.26508599  0.96062506  0.60149435  1
  K  K155  1  0.29792223  0.93648462  0.85882891  1
  K  K156  1  0.72213006  0.05129576  0.14843129  1
  K  K157  1  0.77151174  0.04155465  0.41341172  1
  K  K158  1  0.73366078  0.05965618  0.64117295  1
  K  K159  1  0.75630546  0.05445986  0.84902720  1
