# generated using pymatgen
data_KBeF3
_symmetry_space_group_name_H-M   'P 1'
_cell_length_a   10.57492899
_cell_length_b   10.57492899
_cell_length_c   14.95520700
_cell_angle_alpha   90.00000000
_cell_angle_beta   90.00000000
_cell_angle_gamma   90.00000000
_symmetry_Int_Tables_number   1
_chemical_formula_structural   KBeF3
_chemical_formula_sum   'K32 Be32 F96'
_cell_volume   1672.42768551
_cell_formula_units_Z   32
loop_
 _symmetry_equiv_pos_site_id
 _symmetry_equiv_pos_as_xyz
  1  'x, y, z'
loop_
 _atom_site_type_symbol
 _atom_site_label
 _atom_site_symmetry_multiplicity
 _atom_site_fract_x
 _atom_site_fract_y
 _atom_site_fract_z
 _atom_site_occupancy
  Be  Be0  1  0.00277478  0.01511838  0.98292417  1
  Be  Be1  1  0.00653015  0.93994386  0.24984310  1
  Be  Be2  1  0.02845863  0.99930120  0.51644036  1
  Be  Be3  1  0.00251851  0.95877170  0.73183690  1
  Be  Be4  1  0.48720392  0.04374860  0.98467222  1
  Be  Be5  1  0.54868441  0.00355302  0.24699292  1
  Be  Be6  1  0.53854495  0.02837564  0.51279621  1
  Be  Be7  1  0.53961572  0.04324592  0.77404753  1
  Be  Be8  1  0.22316234  0.22603116  0.99575678  1
  Be  Be9  1  0.23090830  0.23972830  0.28459515  1
  Be  Be10  1  0.23796059  0.30059927  0.49820465  1
  Be  Be11  1  0.21227377  0.27432571  0.78112213  1
  Be  Be12  1  0.99062091  0.44293002  0.99132151  1
  Be  Be13  1  0.02987065  0.46520096  0.27295324  1
  Be  Be14  1  0.97829212  0.45457722  0.52030919  1
  Be  Be15  1  0.00591006  0.50971107  0.78102823  1
  Be  Be16  1  0.73275731  0.28033972  0.00578539  1
  Be  Be17  1  0.73900987  0.23064178  0.21887329  1
  Be  Be18  1  0.73355561  0.26175789  0.49610514  1
  Be  Be19  1  0.71115913  0.27637602  0.72407496  1
  Be  Be20  1  0.47194606  0.53489096  0.99956358  1
  Be  Be21  1  0.46722540  0.54474040  0.22530489  1
  Be  Be22  1  0.46465249  0.51040768  0.50432140  1
  Be  Be23  1  0.52163968  0.51570364  0.71627268  1
  Be  Be24  1  0.24113470  0.72878701  0.02101048  1
  Be  Be25  1  0.25222135  0.76166873  0.23975987  1
  Be  Be26  1  0.21552438  0.77169591  0.47645430  1
  Be  Be27  1  0.25395707  0.79837643  0.74910391  1
  Be  Be28  1  0.72201986  0.72582534  0.02455245  1
  Be  Be29  1  0.75531550  0.76374151  0.24773182  1
  Be  Be30  1  0.71418791  0.78013817  0.47051010  1
  Be  Be31  1  0.80248979  0.72885557  0.75182222  1
  F  F32  1  0.13099600  0.10349772  0.99965314  1
  F  F33  1  0.13787982  0.13774180  0.26355432  1
  F  F34  1  0.12711201  0.09909531  0.49752347  1
  F  F35  1  0.15876300  0.15251301  0.74874618  1
  F  F36  1  0.59982591  0.10552090  0.02604609  1
  F  F37  1  0.63722853  0.12453641  0.23945439  1
  F  F38  1  0.65326839  0.12435054  0.50293702  1
  F  F39  1  0.65315736  0.15126810  0.75917535  1
  F  F40  1  0.37804258  0.41763590  0.00276771  1
  F  F41  1  0.41634218  0.42190456  0.25911916  1
  F  F42  1  0.36380296  0.38822112  0.50042157  1
  F  F43  1  0.32380088  0.34451430  0.74629107  1
  F  F44  1  0.14720490  0.62523477  0.99713406  1
  F  F45  1  0.09307809  0.58757434  0.24382814  1
  F  F46  1  0.15076924  0.64808037  0.50255235  1
  F  F47  1  0.10199070  0.60682230  0.75975965  1
  F  F48  1  0.86163906  0.36750759  0.99348412  1
  F  F49  1  0.91903607  0.40011684  0.23315360  1
  F  F50  1  0.87925232  0.34021674  0.51027149  1
  F  F51  1  0.82475622  0.34440145  0.76074897  1
  F  F52  1  0.61038291  0.62853665  0.01308229  1
  F  F53  1  0.58455459  0.61649320  0.25338009  1
  F  F54  1  0.65045663  0.66499470  0.50617167  1
  F  F55  1  0.62518365  0.60387200  0.74215105  1
  F  F56  1  0.42694307  0.91791616  0.00041535  1
  F  F57  1  0.34833357  0.86554779  0.24963995  1
  F  F58  1  0.32627405  0.85384053  0.50453522  1
  F  F59  1  0.37473607  0.87882493  0.74736418  1
  F  F60  1  0.94294270  0.89354570  0.01574220  1
  F  F61  1  0.87089823  0.86558232  0.24528112  1
  F  F62  1  0.83856148  0.83022434  0.50150949  1
  F  F63  1  0.91509770  0.84035178  0.75067889  1
  F  F64  1  0.90216653  0.11604364  0.00326453  1
  F  F65  1  0.85646020  0.16052136  0.24672821  1
  F  F66  1  0.90324445  0.06869083  0.50272123  1
  F  F67  1  0.91372877  0.07149387  0.74453116  1
  F  F68  1  0.37203412  0.14429965  0.99112112  1
  F  F69  1  0.35592612  0.18919053  0.25738967  1
  F  F70  1  0.42098689  0.10030803  0.48416835  1
  F  F71  1  0.42098451  0.11534769  0.75101164  1
  F  F72  1  0.10248698  0.34833337  0.98459697  1
  F  F73  1  0.15727454  0.36463567  0.25968764  1
  F  F74  1  0.11521831  0.38745762  0.49858263  1
  F  F75  1  0.08824217  0.37686453  0.77046251  1
  F  F76  1  0.83920341  0.65575455  0.99574519  1
  F  F77  1  0.83457606  0.64155226  0.25434185  1
  F  F78  1  0.90433952  0.57297994  0.49553262  1
  F  F79  1  0.87953245  0.59025122  0.75481491  1
  F  F80  1  0.62496793  0.37702573  0.01408197  1
  F  F81  1  0.66982201  0.34957398  0.24455931  1
  F  F82  1  0.63411386  0.36304645  0.50730456  1
  F  F83  1  0.59161997  0.37695341  0.73703840  1
  F  F84  1  0.37379397  0.66488638  0.99895015  1
  F  F85  1  0.34677621  0.63762071  0.24860448  1
  F  F86  1  0.38339779  0.62603056  0.51227155  1
  F  F87  1  0.40075223  0.57763454  0.74186376  1
  F  F88  1  0.19048845  0.85599786  0.99621492  1
  F  F89  1  0.11599717  0.83376590  0.24517267  1
  F  F90  1  0.09183541  0.87030980  0.48676511  1
  F  F91  1  0.13488903  0.90244905  0.75337688  1
  F  F92  1  0.67375625  0.85128535  0.99333494  1
  F  F93  1  0.63808307  0.87739254  0.24271600  1
  F  F94  1  0.60708125  0.89616792  0.48312436  1
  F  F95  1  0.61279882  0.92355080  0.75482832  1
  F  F96  1  0.01278598  0.00091699  0.15973978  1
  F  F97  1  0.00513269  0.98217332  0.34581902  1
  F  F98  1  0.02259318  0.96928497  0.62367001  1
  F  F99  1  0.01939972  0.99429234  0.88182961  1
  F  F100  1  0.48116265  0.01299924  0.16015638  1
  F  F101  1  0.50685863  0.00601867  0.34247353  1
  F  F102  1  0.52167639  0.00682657  0.61204569  1
  F  F103  1  0.52479202  0.03601594  0.88078493  1
  F  F104  1  0.24157897  0.25374218  0.09551926  1
  F  F105  1  0.24491782  0.25718067  0.39639188  1
  F  F106  1  0.24195510  0.24881889  0.59091175  1
  F  F107  1  0.23979717  0.25301894  0.88578646  1
  F  F108  1  0.99418546  0.49569724  0.08347610  1
  F  F109  1  0.00804913  0.47104027  0.37221516  1
  F  F110  1  0.99633798  0.46966289  0.62366290  1
  F  F111  1  0.98416379  0.49950852  0.88982259  1
  F  F112  1  0.75467771  0.24203838  0.10997857  1
  F  F113  1  0.75607388  0.24823358  0.39480314  1
  F  F114  1  0.74314298  0.24526806  0.62605814  1
  F  F115  1  0.72604731  0.22867639  0.91151113  1
  F  F116  1  0.47730947  0.53140225  0.12130696  1
  F  F117  1  0.51226545  0.50968037  0.40956780  1
  F  F118  1  0.51016974  0.49681867  0.60864035  1
  F  F119  1  0.50031145  0.52489993  0.89646525  1
  F  F120  1  0.24335523  0.73811529  0.12929492  1
  F  F121  1  0.23128826  0.75301265  0.37151390  1
  F  F122  1  0.23775444  0.74670523  0.65624509  1
  F  F123  1  0.25494684  0.74475433  0.84309143  1
  F  F124  1  0.73709287  0.74683923  0.13176481  1
  F  F125  1  0.72679189  0.76359326  0.36567226  1
  F  F126  1  0.75610695  0.74904412  0.65856504  1
  F  F127  1  0.75304980  0.74726424  0.84356412  1
  K  K128  1  0.00769583  0.23749904  0.13157660  1
  K  K129  1  0.98839420  0.22439658  0.37855356  1
  K  K130  1  0.99979066  0.22821139  0.63367749  1
  K  K131  1  0.96283677  0.22662773  0.86464659  1
  K  K132  1  0.48167781  0.26828782  0.12882273  1
  K  K133  1  0.51249017  0.26506886  0.36958093  1
  K  K134  1  0.47561986  0.24863181  0.61894118  1
  K  K135  1  0.48996951  0.28576168  0.87828446  1
  K  K136  1  0.23204359  0.48546294  0.12366148  1
  K  K137  1  0.25502779  0.51664279  0.37709677  1
  K  K138  1  0.23719272  0.51159138  0.63324335  1
  K  K139  1  0.26065003  0.51344891  0.87104467  1
  K  K140  1  0.99083861  0.72237314  0.12084753  1
  K  K141  1  0.98182961  0.72063052  0.37648872  1
  K  K142  1  0.99860177  0.72027844  0.61430392  1
  K  K143  1  0.01362198  0.75045784  0.89215554  1
  K  K144  1  0.75246242  0.50121169  0.13265321  1
  K  K145  1  0.74458536  0.49572006  0.37092751  1
  K  K146  1  0.75358388  0.51046681  0.61511484  1
  K  K147  1  0.73149010  0.50375405  0.87996332  1
  K  K148  1  0.49438637  0.78194185  0.12363374  1
  K  K149  1  0.47872025  0.75580214  0.37693203  1
  K  K150  1  0.49950793  0.76579236  0.62849708  1
  K  K151  1  0.50928392  0.76446463  0.86607406  1
  K  K152  1  0.25284438  0.00905740  0.13075250  1
  K  K153  1  0.26600461  0.00397450  0.37433731  1
  K  K154  1  0.27670290  0.01569964  0.62463443  1
  K  K155  1  0.26747891  -0.00022652  0.87272994  1
  K  K156  1  0.76972712  0.99453926  0.11320249  1
  K  K157  1  0.76801237  0.01104600  0.37056295  1
  K  K158  1  0.76094050  0.98566956  0.62836667  1
  K  K159  1  0.76937685  0.98936329  0.87982273  1
