# generated using pymatgen
data_KCaBr3
_symmetry_space_group_name_H-M   'P 1'
_cell_length_a   16.17147410
_cell_length_b   16.17147410
_cell_length_c   22.86991800
_cell_angle_alpha   90.00000000
_cell_angle_beta   90.00000000
_cell_angle_gamma   90.00000000
_symmetry_Int_Tables_number   1
_chemical_formula_structural   KCaBr3
_chemical_formula_sum   'K32 Ca32 Br96'
_cell_volume   5980.86261819
_cell_formula_units_Z   32
loop_
 _symmetry_equiv_pos_site_id
 _symmetry_equiv_pos_as_xyz
  1  'x, y, z'
loop_
 _atom_site_type_symbol
 _atom_site_label
 _atom_site_symmetry_multiplicity
 _atom_site_fract_x
 _atom_site_fract_y
 _atom_site_fract_z
 _atom_site_occupancy
  Br  Br0  1  0.14888373  0.09386159  0.02236534  1
  Br  Br1  1  0.09920275  0.15134189  0.22641113  1
  Br  Br2  1  0.15125041  0.10662096  0.52087582  1
  Br  Br3  1  0.14333725  0.10600685  0.72023776  1
  Br  Br4  1  0.64679031  0.09674845  0.97810434  1
  Br  Br5  1  0.59887422  0.15100363  0.27290919  1
  Br  Br6  1  0.64904201  0.11096167  0.47289310  1
  Br  Br7  1  0.64672183  0.10448568  0.77228764  1
  Br  Br8  1  0.34363071  0.39899675  0.98125720  1
  Br  Br9  1  0.40196284  0.34780272  0.27188916  1
  Br  Br10  1  0.36193230  0.39760870  0.47117762  1
  Br  Br11  1  0.34790984  0.40164237  0.76592020  1
  Br  Br12  1  0.14878550  0.59355828  0.98107765  1
  Br  Br13  1  0.10004811  0.65174924  0.27087701  1
  Br  Br14  1  0.15000844  0.60940205  0.46998582  1
  Br  Br15  1  0.15337807  0.59748993  0.76860125  1
  Br  Br16  1  0.85156484  0.38971173  0.02876310  1
  Br  Br17  1  0.90096562  0.34906060  0.22861931  1
  Br  Br18  1  0.85394713  0.40602424  0.51819220  1
  Br  Br19  1  0.84827742  0.40246203  0.73117620  1
  Br  Br20  1  0.63945179  0.60089587  0.02854816  1
  Br  Br21  1  0.59982157  0.65044058  0.22855363  1
  Br  Br22  1  0.65608144  0.60363089  0.51817651  1
  Br  Br23  1  0.65193814  0.59858825  0.73140635  1
  Br  Br24  1  0.34506037  0.89708123  0.02204527  1
  Br  Br25  1  0.40309588  0.84831299  0.22627037  1
  Br  Br26  1  0.35722266  0.90194620  0.52103744  1
  Br  Br27  1  0.35668320  0.89356841  0.72014607  1
  Br  Br28  1  0.84739184  0.89536172  0.97763770  1
  Br  Br29  1  0.90269792  0.84871027  0.27048295  1
  Br  Br30  1  0.85719589  0.90110051  0.47197842  1
  Br  Br31  1  0.85266271  0.89850823  0.77405580  1
  Br  Br32  1  0.89743076  0.14625867  0.98090495  1
  Br  Br33  1  0.85893156  0.10833256  0.28167118  1
  Br  Br34  1  0.91393793  0.16171982  0.48200262  1
  Br  Br35  1  0.90049771  0.14895675  0.77136054  1
  Br  Br36  1  0.39220226  0.14159434  0.97244410  1
  Br  Br37  1  0.34463377  0.09373268  0.26651478  1
  Br  Br38  1  0.39403601  0.14409798  0.47603074  1
  Br  Br39  1  0.39590365  0.14670311  0.76842722  1
  Br  Br40  1  0.10056099  0.34888605  0.02388694  1
  Br  Br41  1  0.15734340  0.40684672  0.23290219  1
  Br  Br42  1  0.11572741  0.36485182  0.53007137  1
  Br  Br43  1  0.10198810  0.35252745  0.72582613  1
  Br  Br44  1  0.88617220  0.63640292  0.97042754  1
  Br  Br45  1  0.84435033  0.59403133  0.26494070  1
  Br  Br46  1  0.89909104  0.64901938  0.47465308  1
  Br  Br47  1  0.89759800  0.64784674  0.77430611  1
  Br  Br48  1  0.58755375  0.33612547  0.01794102  1
  Br  Br49  1  0.64155807  0.39055221  0.21627894  1
  Br  Br50  1  0.60577127  0.35490438  0.51976282  1
  Br  Br51  1  0.60177043  0.35116658  0.73033259  1
  Br  Br52  1  0.39756067  0.64708890  0.98070295  1
  Br  Br53  1  0.35920959  0.60826796  0.28153849  1
  Br  Br54  1  0.41284654  0.66384029  0.48242409  1
  Br  Br55  1  0.40080467  0.65133473  0.77063078  1
  Br  Br56  1  0.08679457  0.83675744  0.01532824  1
  Br  Br57  1  0.14254064  0.89198970  0.21670199  1
  Br  Br58  1  0.10252428  0.85196168  0.51439979  1
  Br  Br59  1  0.09401838  0.84375059  0.73621835  1
  Br  Br60  1  0.60106389  0.85195346  0.02435370  1
  Br  Br61  1  0.65752093  0.90683373  0.23336260  1
  Br  Br62  1  0.61427705  0.86507619  0.53047590  1
  Br  Br63  1  0.60581050  0.85637230  0.72599326  1
  Br  Br64  1  0.94976249  0.00399746  0.12514870  1
  Br  Br65  1  0.05203895  0.99839499  0.37319339  1
  Br  Br66  1  0.95487802  0.00625467  0.62325511  1
  Br  Br67  1  0.03953733  0.99320061  0.87551347  1
  Br  Br68  1  0.49713080  0.04420574  0.12473396  1
  Br  Br69  1  0.50544337  0.95376012  0.37438334  1
  Br  Br70  1  0.50822125  0.04774669  0.62436128  1
  Br  Br71  1  0.47877598  0.95647694  0.87466819  1
  Br  Br72  1  0.29500603  0.24475058  0.12477406  1
  Br  Br73  1  0.20324697  0.25360037  0.37410304  1
  Br  Br74  1  0.29500995  0.25589029  0.62416132  1
  Br  Br75  1  0.20597657  0.22873265  0.87473666  1
  Br  Br76  1  -0.00266938  0.54468421  0.12454491  1
  Br  Br77  1  0.00465636  0.45535937  0.37463663  1
  Br  Br78  1  0.01777133  0.54719138  0.62500247  1
  Br  Br79  1  0.98270226  0.45494233  0.87438891  1
  Br  Br80  1  0.75208645  0.19698565  0.12624682  1
  Br  Br81  1  0.74814375  0.30182370  0.37381151  1
  Br  Br82  1  0.76023126  0.21070669  0.62392260  1
  Br  Br83  1  0.74184566  0.28693146  0.87613496  1
  Br  Br84  1  0.44813253  0.50181741  0.12610083  1
  Br  Br85  1  0.55210596  0.49785232  0.37363600  1
  Br  Br86  1  0.46259846  0.50716561  0.62365907  1
  Br  Br87  1  0.53556035  0.48651836  0.87567016  1
  Br  Br88  1  0.25432224  0.70019890  0.12507256  1
  Br  Br89  1  0.25154306  0.80214567  0.37304779  1
  Br  Br90  1  0.25774185  0.70601784  0.62311889  1
  Br  Br91  1  0.24462642  0.78813446  0.87527156  1
  Br  Br92  1  0.79487862  0.74876013  0.12416947  1
  Br  Br93  1  0.70573255  0.75417099  0.37469830  1
  Br  Br94  1  0.79766630  0.76844592  0.62510471  1
  Br  Br95  1  0.70397747  0.73280958  0.87445638  1
  Ca  Ca96  1  0.99887740  0.99378793  0.00201445  1
  Ca  Ca97  1  0.00085838  0.00027328  0.24953613  1
  Ca  Ca98  1  0.00187614  0.00383314  0.49754264  1
  Ca  Ca99  1  0.00177103  0.99856985  0.74783925  1
  Ca  Ca100  1  0.49576883  0.99773775  -0.00009073  1
  Ca  Ca101  1  0.50099992  0.99951548  0.24967505  1
  Ca  Ca102  1  0.50736313  0.00276089  0.49822120  1
  Ca  Ca103  1  0.49942620  -0.00010657  0.75073055  1
  Ca  Ca104  1  0.24845491  0.24616310  0.99965034  1
  Ca  Ca105  1  0.25012581  0.25017289  0.24946281  1
  Ca  Ca106  1  0.25228818  0.25740095  0.49796021  1
  Ca  Ca107  1  0.24854872  0.24980866  0.75098912  1
  Ca  Ca108  1  0.99491672  0.49704235  0.99925056  1
  Ca  Ca109  1  0.00081460  0.50032533  0.24969405  1
  Ca  Ca110  1  0.00649437  0.50391096  0.50008172  1
  Ca  Ca111  1  0.00042388  0.50091065  0.74963283  1
  Ca  Ca112  1  0.74449652  0.24898746  0.00307190  1
  Ca  Ca113  1  0.74966962  0.24976415  0.25021420  1
  Ca  Ca114  1  0.75878855  0.25230716  0.49800877  1
  Ca  Ca115  1  0.75229384  0.25053311  0.74901847  1
  Ca  Ca116  1  0.49855243  0.49240410  0.00205210  1
  Ca  Ca117  1  0.50065012  0.49910284  0.24990046  1
  Ca  Ca118  1  0.50241601  0.50797566  0.49781284  1
  Ca  Ca119  1  0.50001484  0.50107612  0.74948667  1
  Ca  Ca120  1  0.24325217  0.74728207  0.00105841  1
  Ca  Ca121  1  0.25148929  0.75052426  0.24928902  1
  Ca  Ca122  1  0.25498777  0.75174045  0.49747718  1
  Ca  Ca123  1  0.24859299  0.75116181  0.74838139  1
  Ca  Ca124  1  0.74657776  0.74349802  -0.00075640  1
  Ca  Ca125  1  0.75080641  0.75029496  0.24971572  1
  Ca  Ca126  1  0.75387702  0.75551047  0.49995952  1
  Ca  Ca127  1  0.75046962  0.75025048  0.74942168  1
  K  K128  1  0.97395607  0.23030677  0.11461969  1
  K  K129  1  0.99081991  0.24284910  0.35270276  1
  K  K130  1  0.00837587  0.22111802  0.61978213  1
  K  K131  1  0.00294186  0.25223142  0.87659359  1
  K  K132  1  0.50699013  0.25699354  0.14728863  1
  K  K133  1  0.52335646  0.27414146  0.38776547  1
  K  K134  1  0.50035730  0.25472696  0.62507506  1
  K  K135  1  0.52692088  0.25018714  0.87758646  1
  K  K136  1  0.23493828  0.48720790  0.10289584  1
  K  K137  1  0.23197093  0.48170017  0.36413675  1
  K  K138  1  0.23178398  0.48743738  0.64143340  1
  K  K139  1  0.28311634  0.53147426  0.87429303  1
  K  K140  1  0.00868470  0.75776246  0.14683716  1
  K  K141  1  0.02366010  0.77112485  0.38577416  1
  K  K142  1  0.00326268  0.75203911  0.62212225  1
  K  K143  1  0.99577628  0.77682595  0.87547419  1
  K  K144  1  0.76892418  0.51857703  0.13520440  1
  K  K145  1  0.76586051  0.51555302  0.39676204  1
  K  K146  1  0.72147688  0.47210794  0.62388467  1
  K  K147  1  0.76780993  0.51837009  0.85883751  1
  K  K148  1  0.48072401  0.72161461  0.11382725  1
  K  K149  1  0.49234254  0.74087053  0.35278940  1
  K  K150  1  0.47050086  0.75916344  0.62056468  1
  K  K151  1  0.50005665  0.75367232  0.87704832  1
  K  K152  1  0.27024023  0.01903306  0.13611505  1
  K  K153  1  0.26303435  0.01311053  0.39414598  1
  K  K154  1  0.28461386  0.03507731  0.62343316  1
  K  K155  1  0.25934541  0.00795877  0.89732106  1
  K  K156  1  0.73695726  0.98321881  0.10382411  1
  K  K157  1  0.73136983  0.98284866  0.36415616  1
  K  K158  1  0.73535493  0.98088077  0.63112953  1
  K  K159  1  0.78200739  0.03340836  0.87441049  1
