# generated using pymatgen
data_KCaCl3
_symmetry_space_group_name_H-M   'P 1'
_cell_length_a   15.28483432
_cell_length_b   15.28483432
_cell_length_c   21.61602000
_cell_angle_alpha   90.00000000
_cell_angle_beta   90.00000000
_cell_angle_gamma   90.00000000
_symmetry_Int_Tables_number   1
_chemical_formula_structural   KCaCl3
_chemical_formula_sum   'K32 Ca32 Cl96'
_cell_volume   5050.06775400
_cell_formula_units_Z   32
loop_
 _symmetry_equiv_pos_site_id
 _symmetry_equiv_pos_as_xyz
  1  'x, y, z'
loop_
 _atom_site_type_symbol
 _atom_site_label
 _atom_site_symmetry_multiplicity
 _atom_site_fract_x
 _atom_site_fract_y
 _atom_site_fract_z
 _atom_site_occupancy
  Ca  Ca0  1  -0.00355402  0.25401336  0.12470767  1
  Ca  Ca1  1  0.00243939  0.24468047  0.37484882  1
  Ca  Ca2  1  0.00187863  0.24493024  0.62569497  1
  Ca  Ca3  1  -0.00361029  0.25385094  0.87615072  1
  Ca  Ca4  1  0.49496858  0.25180037  0.12594422  1
  Ca  Ca5  1  0.50586586  0.24739921  0.37471185  1
  Ca  Ca6  1  0.50479146  0.24801099  0.62592731  1
  Ca  Ca7  1  0.49517199  0.25141590  0.87423834  1
  Ca  Ca8  1  0.24416614  0.50180463  0.12632673  1
  Ca  Ca9  1  0.25469278  0.49866395  0.37532215  1
  Ca  Ca10  1  0.25420039  0.49885909  0.62653209  1
  Ca  Ca11  1  0.24487450  0.50098609  0.87520740  1
  Ca  Ca12  1  -0.00724956  0.75004211  0.12733751  1
  Ca  Ca13  1  0.00483227  0.74850259  0.37498851  1
  Ca  Ca14  1  0.00608626  0.74737595  0.62644408  1
  Ca  Ca15  1  -0.00748806  0.75033349  0.87421541  1
  Ca  Ca16  1  0.74656840  0.50465168  0.12606981  1
  Ca  Ca17  1  0.75170799  0.49542227  0.37499192  1
  Ca  Ca18  1  0.75137993  0.49518292  0.62617216  1
  Ca  Ca19  1  0.74673126  0.50444783  0.87511885  1
  Ca  Ca20  1  0.49800019  0.75408006  0.12623332  1
  Ca  Ca21  1  0.50167666  0.74522110  0.37593776  1
  Ca  Ca22  1  0.50191808  0.74471871  0.62591736  1
  Ca  Ca23  1  0.49745170  0.75455837  0.87509740  1
  Ca  Ca24  1  0.24853116  0.00658263  0.12638703  1
  Ca  Ca25  1  0.25139706  -0.00478636  0.37468666  1
  Ca  Ca26  1  0.25138165  -0.00525647  0.62590317  1
  Ca  Ca27  1  0.24798211  0.00693725  0.87375507  1
  Ca  Ca28  1  0.74558986  0.00245890  0.12482853  1
  Ca  Ca29  1  0.75460520  -0.00133233  0.37452315  1
  Ca  Ca30  1  0.75486925  -0.00173918  0.62655250  1
  Ca  Ca31  1  0.74408243  0.00324599  0.87619259  1
  Cl  Cl32  1  -0.04980103  0.26526150  0.00046965  1
  Cl  Cl33  1  0.04443793  0.25096768  0.24911782  1
  Cl  Cl34  1  -0.03862829  0.24583402  0.50018989  1
  Cl  Cl35  1  0.04280201  0.25147855  0.75144830  1
  Cl  Cl36  1  0.48917714  0.21045395  0.00012319  1
  Cl  Cl37  1  0.50128372  0.29581068  0.25102576  1
  Cl  Cl38  1  0.50316937  0.19941507  0.50032047  1
  Cl  Cl39  1  0.50171568  0.29736496  0.74927621  1
  Cl  Cl40  1  0.24738662  0.54828242  0.00070472  1
  Cl  Cl41  1  0.24977903  0.45533593  0.25044837  1
  Cl  Cl42  1  0.25472671  0.53968065  0.50092050  1
  Cl  Cl43  1  0.24877401  0.45401907  0.75128826  1
  Cl  Cl44  1  0.99019577  0.71330003  0.00079032  1
  Cl  Cl45  1  0.00306858  0.79747672  0.25115040  1
  Cl  Cl46  1  0.00380225  0.69983629  0.50059911  1
  Cl  Cl47  1  0.00240094  0.79697975  0.75037094  1
  Cl  Cl48  1  0.78723139  0.51072314  0.00068422  1
  Cl  Cl49  1  0.70302808  0.49678009  0.25145256  1
  Cl  Cl50  1  0.79959352  0.49778869  0.50050888  1
  Cl  Cl51  1  0.70402990  0.49591390  0.74986891  1
  Cl  Cl52  1  0.45151014  0.75168273  0.00067891  1
  Cl  Cl53  1  0.54265867  0.75333200  0.25037021  1
  Cl  Cl54  1  0.46044427  0.74783221  0.50092726  1
  Cl  Cl55  1  0.54477261  0.75109703  0.75130714  1
  Cl  Cl56  1  0.28412648  0.01018599  0.00004057  1
  Cl  Cl57  1  0.20435929  -0.00621521  0.25053739  1
  Cl  Cl58  1  0.29931335  -0.00268192  0.50027158  1
  Cl  Cl59  1  0.20175519  -0.00426243  0.74970934  1
  Cl  Cl60  1  0.73244457  0.04957846  0.00059721  1
  Cl  Cl61  1  0.74962637  0.95454694  0.24936106  1
  Cl  Cl62  1  0.75590963  0.03887894  0.50050694  1
  Cl  Cl63  1  0.75110828  -0.04516429  0.75165716  1
  Cl  Cl64  1  0.09624601  0.10341901  0.10644571  1
  Cl  Cl65  1  0.15508395  0.14740852  0.39256003  1
  Cl  Cl66  1  0.15372618  0.14633400  0.60717003  1
  Cl  Cl67  1  0.09565189  0.10326084  0.89436468  1
  Cl  Cl68  1  0.59631258  0.10301160  0.14703355  1
  Cl  Cl69  1  0.65061416  0.14385508  0.35094863  1
  Cl  Cl70  1  0.65083557  0.14467752  0.64735478  1
  Cl  Cl71  1  0.59899905  0.10663886  0.84899612  1
  Cl  Cl72  1  0.39399302  0.40184883  0.10588249  1
  Cl  Cl73  1  0.35704023  0.34925063  0.39710004  1
  Cl  Cl74  1  0.35609602  0.34957553  0.60377718  1
  Cl  Cl75  1  0.39523274  0.40215336  0.89516346  1
  Cl  Cl76  1  0.10030282  0.60800509  0.15053167  1
  Cl  Cl77  1  0.15210221  0.64643860  0.35423678  1
  Cl  Cl78  1  0.14992808  0.64333706  0.65157049  1
  Cl  Cl79  1  0.09898387  0.60600576  0.85427945  1
  Cl  Cl80  1  0.89178629  0.39974396  0.14912193  1
  Cl  Cl81  1  0.85819337  0.35162774  0.35190570  1
  Cl  Cl82  1  0.85432217  0.34838420  0.64688238  1
  Cl  Cl83  1  0.89513964  0.40281169  0.85418271  1
  Cl  Cl84  1  0.59404235  0.60196604  0.10852592  1
  Cl  Cl85  1  0.65406361  0.64720672  0.39357494  1
  Cl  Cl86  1  0.65402635  0.64668763  0.60737603  1
  Cl  Cl87  1  0.59502085  0.60309553  0.89350972  1
  Cl  Cl88  1  0.39440283  0.90145354  0.14537377  1
  Cl  Cl89  1  0.35346152  0.84778861  0.35408439  1
  Cl  Cl90  1  0.35837286  0.85198197  0.65035459  1
  Cl  Cl91  1  0.38887672  0.89709098  0.85148851  1
  Cl  Cl92  1  0.89457580  0.90101728  0.10472042  1
  Cl  Cl93  1  0.85563306  0.84893998  0.39681103  1
  Cl  Cl94  1  0.85721379  0.84896595  0.60463985  1
  Cl  Cl95  1  0.89254120  0.90031417  0.89753405  1
  Cl  Cl96  1  0.85306235  0.14553418  0.15146111  1
  Cl  Cl97  1  0.91053962  0.08950183  0.36104430  1
  Cl  Cl98  1  0.91074952  0.08918729  0.63944205  1
  Cl  Cl99  1  0.85279929  0.14625607  0.84983725  1
  Cl  Cl100  1  0.33870517  0.16132636  0.14124031  1
  Cl  Cl101  1  0.39411204  0.10566201  0.34906976  1
  Cl  Cl102  1  0.39328867  0.10669675  0.65129026  1
  Cl  Cl103  1  0.33900896  0.16096756  0.85827017  1
  Cl  Cl104  1  0.13482520  0.36474821  0.09570273  1
  Cl  Cl105  1  0.10238686  0.39851121  0.38752395  1
  Cl  Cl106  1  0.10157425  0.39846297  0.61344384  1
  Cl  Cl107  1  0.13669937  0.36258953  0.90534453  1
  Cl  Cl108  1  0.83794000  0.65998508  0.14225112  1
  Cl  Cl109  1  0.89406955  0.60689602  0.34925531  1
  Cl  Cl110  1  0.89397281  0.60613888  0.65156849  1
  Cl  Cl111  1  0.83765371  0.66034419  0.85922032  1
  Cl  Cl112  1  0.64804505  0.35048306  0.11161173  1
  Cl  Cl113  1  0.61535427  0.38465101  0.40672305  1
  Cl  Cl114  1  0.61369735  0.38587358  0.59396903  1
  Cl  Cl115  1  0.64846633  0.35056870  0.88932055  1
  Cl  Cl116  1  0.35369194  0.64557578  0.15097926  1
  Cl  Cl117  1  0.41107432  0.58905634  0.36238483  1
  Cl  Cl118  1  0.41032916  0.58951327  0.63980148  1
  Cl  Cl119  1  0.35395492  0.64447796  0.85023248  1
  Cl  Cl120  1  0.14364488  0.85536673  0.10703873  1
  Cl  Cl121  1  0.11249092  0.88744266  0.40640549  1
  Cl  Cl122  1  0.11577728  0.88376179  0.59356312  1
  Cl  Cl123  1  0.14244730  0.85594002  0.89394147  1
  Cl  Cl124  1  0.63757161  0.86139527  0.09630814  1
  Cl  Cl125  1  0.60134179  0.89900688  0.38767739  1
  Cl  Cl126  1  0.60302258  0.89772670  0.61364567  1
  Cl  Cl127  1  0.63374946  0.86481487  0.90544634  1
  K  K128  1  0.02397633  -0.02427731  0.00056646  1
  K  K129  1  -0.01195508  0.01232165  0.23036160  1
  K  K130  1  0.97820510  -0.00004135  0.50174717  1
  K  K131  1  -0.01352037  0.01206352  0.77059608  1
  K  K132  1  0.51640407  0.99173577  0.00776512  1
  K  K133  1  0.51966710  0.98108094  0.25978256  1
  K  K134  1  0.50829311  -0.01042633  0.50145956  1
  K  K135  1  0.51621374  -0.02135828  0.74084441  1
  K  K136  1  0.26529584  0.24269682  0.00073885  1
  K  K137  1  0.26004665  0.24145181  0.27058545  1
  K  K138  1  0.28064041  0.21797196  0.50045507  1
  K  K139  1  0.25805846  0.24125353  0.73020765  1
  K  K140  1  0.00555910  0.48149917  0.99698151  1
  K  K141  1  0.01557003  0.47795906  0.25995009  1
  K  K142  1  0.00853723  0.49034540  0.50025060  1
  K  K143  1  0.01880210  0.48117099  0.74175101  1
  K  K144  1  0.74443011  0.25562393  0.00036311  1
  K  K145  1  0.73305619  0.27152585  0.24077028  1
  K  K146  1  0.74069693  0.26196585  0.50394332  1
  K  K147  1  0.72895452  0.26807676  0.76019235  1
  K  K148  1  0.47099148  0.52861588  0.00066465  1
  K  K149  1  0.48819558  0.51058543  0.23186545  1
  K  K150  1  0.47888743  0.49759201  0.50059786  1
  K  K151  1  0.48895992  0.51124476  0.76992873  1
  K  K152  1  0.24473362  0.75470926  -0.00008347  1
  K  K153  1  0.22882343  0.76898479  0.24013427  1
  K  K154  1  0.23921084  0.76185549  0.49430727  1
  K  K155  1  0.23218812  0.77153394  0.76124164  1
  K  K156  1  0.76632354  0.74527181  0.99891935  1
  K  K157  1  0.75738645  0.74064163  0.27050758  1
  K  K158  1  0.78088286  0.71848423  0.50083701  1
  K  K159  1  0.75865037  0.74090471  0.73036778  1
