# generated using pymatgen
data_KCaF3
_symmetry_space_group_name_H-M   'P 1'
_cell_length_a   12.67664409
_cell_length_b   12.67664409
_cell_length_c   17.92748100
_cell_angle_alpha   90.00000000
_cell_angle_beta   90.00000000
_cell_angle_gamma   90.00000000
_symmetry_Int_Tables_number   1
_chemical_formula_structural   KCaF3
_chemical_formula_sum   'K32 Ca32 F96'
_cell_volume   2880.89788985
_cell_formula_units_Z   32
loop_
 _symmetry_equiv_pos_site_id
 _symmetry_equiv_pos_as_xyz
  1  'x, y, z'
loop_
 _atom_site_type_symbol
 _atom_site_label
 _atom_site_symmetry_multiplicity
 _atom_site_fract_x
 _atom_site_fract_y
 _atom_site_fract_z
 _atom_site_occupancy
  Ca  Ca0  1  0.00015145  -0.00023715  -0.00029559  1
  Ca  Ca1  1  0.00335995  -0.00097672  0.25082949  1
  Ca  Ca2  1  0.00015476  -0.00021352  0.49970049  1
  Ca  Ca3  1  -0.00303950  0.00042036  0.74848037  1
  Ca  Ca4  1  0.50015928  -0.00017093  -0.00031287  1
  Ca  Ca5  1  0.50117449  -0.00312772  0.24955593  1
  Ca  Ca6  1  0.50027443  -0.00025018  0.49963168  1
  Ca  Ca7  1  0.49928644  0.00266534  0.74985995  1
  Ca  Ca8  1  0.25008862  0.24985108  -0.00024208  1
  Ca  Ca9  1  0.25074524  0.24650758  0.25085520  1
  Ca  Ca10  1  0.25015680  0.24982297  0.49967231  1
  Ca  Ca11  1  0.24957313  0.25296729  0.74856601  1
  Ca  Ca12  1  0.00001744  0.49980381  -0.00032228  1
  Ca  Ca13  1  0.00116921  0.49685771  0.24949277  1
  Ca  Ca14  1  0.00018551  0.49980572  0.49971514  1
  Ca  Ca15  1  -0.00077663  0.50256859  0.74994994  1
  Ca  Ca16  1  0.75011351  0.24984444  -0.00038834  1
  Ca  Ca17  1  0.75300197  0.24875702  0.24945674  1
  Ca  Ca18  1  0.75021574  0.24978541  0.49967752  1
  Ca  Ca19  1  0.74741322  0.25079872  0.74984022  1
  Ca  Ca20  1  0.50016589  0.49967362  -0.00042344  1
  Ca  Ca21  1  0.50344076  0.49894790  0.25067596  1
  Ca  Ca22  1  0.50014404  0.49974852  0.49960208  1
  Ca  Ca23  1  0.49697906  0.50052849  0.74847400  1
  Ca  Ca24  1  0.25002111  0.74977471  -0.00036917  1
  Ca  Ca25  1  0.25299072  0.74866316  0.24944203  1
  Ca  Ca26  1  0.25015012  0.74972075  0.49966549  1
  Ca  Ca27  1  0.24735602  0.75072867  0.74982945  1
  Ca  Ca28  1  0.75001393  0.74975862  -0.00037890  1
  Ca  Ca29  1  0.75081272  0.74643482  0.25079624  1
  Ca  Ca30  1  0.75021394  0.74978144  0.49966265  1
  Ca  Ca31  1  0.74945787  0.75307532  0.74853564  1
  F  F32  1  0.14594577  0.10397285  -0.01728826  1
  F  F33  1  0.15230629  0.09748124  0.26536663  1
  F  F34  1  0.11218706  0.13777875  0.47302200  1
  F  F35  1  0.14343437  0.10657266  0.76521001  1
  F  F36  1  0.64198288  0.10791078  0.97824980  1
  F  F37  1  0.64218392  0.10769861  0.27068866  1
  F  F38  1  0.60007690  0.14988404  0.48623825  1
  F  F39  1  0.63569585  0.11439755  0.77583003  1
  F  F40  1  0.35393551  0.39592994  0.01646953  1
  F  F41  1  0.35704508  0.39272050  0.23398165  1
  F  F42  1  0.38819697  0.36174099  0.52641579  1
  F  F43  1  0.34803827  0.40196025  0.73405442  1
  F  F44  1  0.14179455  0.60800455  -0.02167545  1
  F  F45  1  0.14237594  0.60748948  0.27053414  1
  F  F46  1  0.09986632  0.65004670  0.48650207  1
  F  F47  1  0.13585091  0.61414024  0.77574131  1
  F  F48  1  0.85820185  0.39158397  0.02110376  1
  F  F49  1  0.86483514  0.38506903  0.22350963  1
  F  F50  1  0.90032938  0.34964604  0.51321947  1
  F  F51  1  0.85802767  0.39201064  0.72870413  1
  F  F52  1  0.64616881  0.60366971  0.98271620  1
  F  F53  1  0.65263750  0.59723616  0.26499342  1
  F  F54  1  0.61228325  0.63766797  0.47302698  1
  F  F55  1  0.64333929  0.60672974  0.76507448  1
  F  F56  1  0.35840797  0.89139331  0.02083212  1
  F  F57  1  0.36478865  0.88508394  0.22369703  1
  F  F58  1  0.40030097  0.84968838  0.51299432  1
  F  F59  1  0.35807675  0.89194416  0.72883058  1
  F  F60  1  0.85414430  0.89576386  0.01662599  1
  F  F61  1  0.85709775  0.89273674  0.23395337  1
  F  F62  1  0.88807012  0.86185111  0.52639672  1
  F  F63  1  0.84777955  0.90223736  0.73412760  1
  F  F64  1  0.89530944  0.14489605  0.98429309  1
  F  F65  1  0.89427480  0.13952390  0.26948462  1
  F  F66  1  0.85398371  0.10365472  0.48267983  1
  F  F67  1  0.89345334  0.14708694  0.76522211  1
  F  F68  1  0.39505585  0.14482625  0.01511814  1
  F  F69  1  0.39715765  0.14265666  0.23410112  1
  F  F70  1  0.35407921  0.10357805  0.51668219  1
  F  F71  1  0.39066513  0.14447878  0.73030306  1
  F  F72  1  0.10484979  0.35455471  0.98447328  1
  F  F73  1  0.10996138  0.35526168  0.26938794  1
  F  F74  1  0.14627140  0.39605610  0.48267220  1
  F  F75  1  0.10289124  0.35646243  0.76539945  1
  F  F76  1  0.89510254  0.64497071  0.01512018  1
  F  F77  1  0.89739216  0.64284203  0.23390958  1
  F  F78  1  0.85405694  0.60355552  0.51685337  1
  F  F79  1  0.89063004  0.64452553  0.73041263  1
  F  F80  1  0.60462018  0.35427405  0.01486953  1
  F  F81  1  0.60691383  0.35232869  0.23399639  1
  F  F82  1  0.64643376  0.39590060  0.51645738  1
  F  F83  1  0.60594148  0.35987729  0.72992043  1
  F  F84  1  0.39508377  0.64467783  -0.01586302  1
  F  F85  1  0.39452532  0.63966303  0.26935314  1
  F  F86  1  0.35399364  0.60368286  0.48261166  1
  F  F87  1  0.39341777  0.64708991  0.76521521  1
  F  F88  1  0.10506238  0.85482132  0.01522233  1
  F  F89  1  0.10703297  0.85248866  0.23395428  1
  F  F90  1  0.14645706  0.89597689  0.51660683  1
  F  F91  1  0.10565851  0.85948747  0.73008408  1
  F  F92  1  0.60493704  0.85459760  0.98447667  1
  F  F93  1  0.60996948  0.85516014  0.26917948  1
  F  F94  1  0.64623735  0.89585627  0.48240624  1
  F  F95  1  0.60286728  0.85660305  0.76530149  1
  F  F96  1  0.00890086  0.03199860  0.12527864  1
  F  F97  1  0.99604304  0.95934307  0.37530582  1
  F  F98  1  0.00405641  0.04008308  0.62406949  1
  F  F99  1  -0.00867428  0.96785764  0.87410376  1
  F  F100  1  0.53846252  -0.00488205  0.12460612  1
  F  F101  1  0.46320698  -0.00470123  0.37446052  1
  F  F102  1  0.53713337  0.00424153  0.62487188  1
  F  F103  1  0.46174842  0.00456659  0.87478316  1
  F  F104  1  0.21790999  0.24082781  0.12531247  1
  F  F105  1  0.29045763  0.25374916  0.37526601  1
  F  F106  1  0.20996753  0.24592520  0.62410840  1
  F  F107  1  0.28184127  0.25874655  0.87415958  1
  F  F108  1  0.03854070  0.49473113  0.12452787  1
  F  F109  1  -0.03678897  0.49538846  0.37454200  1
  F  F110  1  0.03718280  0.50423765  0.62493705  1
  F  F111  1  0.96152134  0.50529883  0.87483287  1
  F  F112  1  0.75525736  0.21113516  0.12450032  1
  F  F113  1  0.75506859  0.28681114  0.37446254  1
  F  F114  1  0.74537844  0.21294523  0.62484489  1
  F  F115  1  0.74474055  0.28828750  0.87475946  1
  F  F116  1  0.50893358  0.53199083  0.12513316  1
  F  F117  1  0.49639330  0.45950524  0.37517042  1
  F  F118  1  0.50415474  0.54006324  0.62401733  1
  F  F119  1  0.49120606  0.46744854  0.87400361  1
  F  F120  1  0.25591983  0.71130643  0.12451388  1
  F  F121  1  0.25449637  0.78659749  0.37448115  1
  F  F122  1  0.24554646  0.71285941  0.62485945  1
  F  F123  1  0.24505896  0.78833607  0.87475204  1
  F  F124  1  0.71811146  0.74082794  0.12522135  1
  F  F125  1  0.79052050  0.75336934  0.37521027  1
  F  F126  1  0.70997607  0.74605073  0.62407469  1
  F  F127  1  0.78216513  0.75914546  0.87412722  1
  K  K128  1  -0.00883931  0.25836821  0.12076121  1
  K  K129  1  -0.01027390  0.25997522  0.38045765  1
  K  K130  1  -0.00687474  0.25710404  0.63603741  1
  K  K131  1  0.00478038  0.24510276  0.87440546  1
  K  K132  1  0.49649169  0.25298579  0.12513879  1
  K  K133  1  0.50738846  0.24248195  0.36331904  1
  K  K134  1  0.51028335  0.23980503  0.61892908  1
  K  K135  1  0.50930402  0.24097633  0.87818450  1
  K  K136  1  0.25056271  0.49932702  0.12587260  1
  K  K137  1  0.26221013  0.48787969  0.36797193  1
  K  K138  1  0.25486644  0.49490793  0.61303840  1
  K  K139  1  0.25840189  0.49169856  0.87391101  1
  K  K140  1  -0.00416589  0.75393638  0.12498096  1
  K  K141  1  0.00746791  0.74245280  0.36331072  1
  K  K142  1  0.01029096  0.73947475  0.61885123  1
  K  K143  1  0.00884459  0.74073683  0.87800257  1
  K  K144  1  0.74271390  0.50837466  0.12572203  1
  K  K145  1  0.74529814  0.50470450  0.38655219  1
  K  K146  1  0.73818851  0.51137632  0.63091840  1
  K  K147  1  0.74957911  0.50017988  0.87305514  1
  K  K148  1  0.49089583  0.75823972  0.12088556  1
  K  K149  1  0.48997442  0.75991184  0.38034165  1
  K  K150  1  0.49320684  0.75699109  0.63593837  1
  K  K151  1  0.50318109  0.74675267  0.87437042  1
  K  K152  1  0.24236097  0.00778645  0.12568764  1
  K  K153  1  0.24543164  0.00463255  0.38647323  1
  K  K154  1  0.23840625  0.01136105  0.63088861  1
  K  K155  1  0.24979228  0.00017190  0.87321954  1
  K  K156  1  0.75051971  -0.00073855  0.12588547  1
  K  K157  1  0.76242461  -0.01201222  0.36814101  1
  K  K158  1  0.75499872  -0.00497106  0.61300374  1
  K  K159  1  0.75840509  -0.00830667  0.87381211  1
