# generated using pymatgen
data_KCdBr3
_symmetry_space_group_name_H-M   'P 1'
_cell_length_a   15.72508608
_cell_length_b   15.72508608
_cell_length_c   22.23863100
_cell_angle_alpha   90.00000000
_cell_angle_beta   90.00000000
_cell_angle_gamma   90.00000000
_symmetry_Int_Tables_number   1
_chemical_formula_structural   KCdBr3
_chemical_formula_sum   'K32 Cd32 Br96'
_cell_volume   5499.13158272
_cell_formula_units_Z   32
loop_
 _symmetry_equiv_pos_site_id
 _symmetry_equiv_pos_as_xyz
  1  'x, y, z'
loop_
 _atom_site_type_symbol
 _atom_site_label
 _atom_site_symmetry_multiplicity
 _atom_site_fract_x
 _atom_site_fract_y
 _atom_site_fract_z
 _atom_site_occupancy
  Br  Br0  1  0.95250882  0.24739489  0.00069623  1
  Br  Br1  1  0.04087959  0.25296651  0.24964609  1
  Br  Br2  1  0.95503801  0.24905411  0.50085685  1
  Br  Br3  1  0.04586911  0.24358860  0.74829827  1
  Br  Br4  1  0.50284492  0.20729338  0.00104360  1
  Br  Br5  1  0.48784602  0.29461334  0.25045304  1
  Br  Br6  1  0.50225832  0.20709793  0.50001851  1
  Br  Br7  1  0.50490136  0.29286647  0.75075297  1
  Br  Br8  1  0.24762200  0.54347723  0.99864136  1
  Br  Br9  1  0.23884183  0.45734748  0.25113995  1
  Br  Br10  1  0.25004424  0.54382088  0.49965581  1
  Br  Br11  1  0.25922904  0.45276959  0.75059708  1
  Br  Br12  1  0.00203027  0.70796541  0.00117834  1
  Br  Br13  1  0.97994643  0.79557674  0.25039939  1
  Br  Br14  1  0.00112790  0.70629013  0.49950977  1
  Br  Br15  1  0.00482854  0.79143108  0.74968747  1
  Br  Br16  1  0.79525630  0.50027239  0.00059648  1
  Br  Br17  1  0.70473129  0.50940866  0.25195186  1
  Br  Br18  1  0.79270913  0.49870025  0.49940407  1
  Br  Br19  1  0.70823516  0.49873920  0.75100687  1
  Br  Br20  1  0.44977294  0.74962992  -0.00175995  1
  Br  Br21  1  0.53478678  0.75249667  0.24962094  1
  Br  Br22  1  0.45431962  0.74923209  0.50001103  1
  Br  Br23  1  0.54609760  0.74439426  0.74960314  1
  Br  Br24  1  0.29383571  0.99949162  0.00162855  1
  Br  Br25  1  0.20457524  0.00913877  0.25027754  1
  Br  Br26  1  0.29407703  0.99852513  0.49912205  1
  Br  Br27  1  0.20887693  0.99900262  0.74889799  1
  Br  Br28  1  0.74712574  0.04555336  0.99956280  1
  Br  Br29  1  0.73888937  0.95714273  0.24952222  1
  Br  Br30  1  0.74873974  0.04409243  0.50060228  1
  Br  Br31  1  0.75915245  0.95369052  0.75009233  1
  Br  Br32  1  0.14047859  0.15056439  0.10070131  1
  Br  Br33  1  0.14428440  0.15173928  0.39644111  1
  Br  Br34  1  0.10822533  0.10040311  0.59903187  1
  Br  Br35  1  0.10696314  0.09541386  0.89697474  1
  Br  Br36  1  0.64005299  0.15337580  0.14591831  1
  Br  Br37  1  0.64363195  0.15190570  0.35489642  1
  Br  Br38  1  0.60808780  0.09980672  0.64580756  1
  Br  Br39  1  0.61043992  0.09931473  0.85314657  1
  Br  Br40  1  0.35425451  0.35338870  0.09967198  1
  Br  Br41  1  0.34908174  0.35209471  0.39817551  1
  Br  Br42  1  0.40167094  0.39802347  0.60266525  1
  Br  Br43  1  0.39554686  0.39558621  0.90148664  1
  Br  Br44  1  0.13633908  0.65027732  0.14712183  1
  Br  Br45  1  0.14192400  0.65031834  0.35520958  1
  Br  Br46  1  0.10652335  0.59853321  0.64502589  1
  Br  Br47  1  0.10943699  0.59717406  0.85406605  1
  Br  Br48  1  0.85307154  0.35500305  0.14705286  1
  Br  Br49  1  0.84916908  0.35221259  0.35435822  1
  Br  Br50  1  0.89919854  0.39445337  0.64472483  1
  Br  Br51  1  0.89701024  0.39653332  0.85469321  1
  Br  Br52  1  0.63381298  0.65249561  0.09996712  1
  Br  Br53  1  0.64197026  0.65169455  0.39837287  1
  Br  Br54  1  0.60419111  0.59763385  0.60288751  1
  Br  Br55  1  0.60855300  0.59909955  0.90052296  1
  Br  Br56  1  0.35190192  0.85205889  0.14547145  1
  Br  Br57  1  0.35030559  0.85331280  0.35464831  1
  Br  Br58  1  0.39922473  0.89486111  0.64501714  1
  Br  Br59  1  0.39656908  0.89629119  0.85345618  1
  Br  Br60  1  0.85120904  0.85599733  0.09873301  1
  Br  Br61  1  0.84800151  0.85262098  0.39742035  1
  Br  Br62  1  0.89797320  0.89332576  0.60023599  1
  Br  Br63  1  0.89802313  0.89817520  0.89790562  1
  Br  Br64  1  0.88979969  0.10381104  0.14171264  1
  Br  Br65  1  0.89431044  0.10161445  0.35984207  1
  Br  Br66  1  0.86298538  0.13799787  0.65413618  1
  Br  Br67  1  0.86391388  0.14291559  0.84643871  1
  Br  Br68  1  0.38453446  0.10698704  0.15509084  1
  Br  Br69  1  0.38926003  0.10671942  0.34935032  1
  Br  Br70  1  0.35773677  0.14675502  0.63902524  1
  Br  Br71  1  0.35927328  0.14620743  0.86198821  1
  Br  Br72  1  0.09264565  0.40943034  0.10728784  1
  Br  Br73  1  0.08926690  0.40814366  0.39169698  1
  Br  Br74  1  0.14666074  0.35405703  0.60252123  1
  Br  Br75  1  0.14107867  0.34910846  0.89637125  1
  Br  Br76  1  0.88073590  0.61170378  0.15339379  1
  Br  Br77  1  0.88904581  0.60719015  0.34934123  1
  Br  Br78  1  0.85454128  0.64547610  0.63932311  1
  Br  Br79  1  0.85951270  0.64751503  0.86160263  1
  Br  Br80  1  0.60730672  0.40175572  0.10749256  1
  Br  Br81  1  0.60286591  0.39739385  0.39598422  1
  Br  Br82  1  0.65858186  0.34074638  0.61100121  1
  Br  Br83  1  0.65652236  0.33928081  0.89174212  1
  Br  Br84  1  0.38261309  0.60134731  0.14210527  1
  Br  Br85  1  0.39052692  0.60348909  0.35711040  1
  Br  Br86  1  0.35936506  0.64138907  0.65180740  1
  Br  Br87  1  0.36531625  0.64084547  0.84341462  1
  Br  Br88  1  0.10251162  0.89959992  0.10276461  1
  Br  Br89  1  0.10174404  0.89815834  0.39824563  1
  Br  Br90  1  0.15774140  0.84027871  0.60901147  1
  Br  Br91  1  0.15775114  0.83765226  0.88990479  1
  Br  Br92  1  0.59046738  0.91629207  0.10713259  1
  Br  Br93  1  0.59189157  0.91069586  0.39157677  1
  Br  Br94  1  0.64471182  0.85289403  0.60269420  1
  Br  Br95  1  0.64223955  0.85227703  0.89702220  1
  Cd  Cd96  1  -0.00057457  0.25406558  0.12499424  1
  Cd  Cd97  1  -0.00108297  0.25386233  0.37510168  1
  Cd  Cd98  1  0.00155545  0.24421478  0.62387155  1
  Cd  Cd99  1  0.00076927  0.24594689  0.87762731  1
  Cd  Cd100  1  0.49054861  0.24405909  0.12562747  1
  Cd  Cd101  1  0.49440219  0.24801399  0.37612418  1
  Cd  Cd102  1  0.50423936  0.25065270  0.62537396  1
  Cd  Cd103  1  0.50262417  0.25246772  0.87507893  1
  Cd  Cd104  1  0.24412548  0.49543697  0.12458560  1
  Cd  Cd105  1  0.24343358  0.49662060  0.37639312  1
  Cd  Cd106  1  0.25481941  0.49904436  0.62428900  1
  Cd  Cd107  1  0.25782179  0.50369338  0.87481735  1
  Cd  Cd108  1  0.99386669  0.75208790  0.12668191  1
  Cd  Cd109  1  0.99563204  0.75072464  0.37459667  1
  Cd  Cd110  1  0.00426300  0.74983330  0.62489813  1
  Cd  Cd111  1  0.00397752  0.75028444  0.87528742  1
  Cd  Cd112  1  0.74918646  0.50407007  0.12358864  1
  Cd  Cd113  1  0.74903196  0.50293444  0.37640166  1
  Cd  Cd114  1  0.75053842  0.49523256  0.62574063  1
  Cd  Cd115  1  0.74842201  0.49360797  0.87593024  1
  Cd  Cd116  1  0.50264268  0.76370252  0.12089008  1
  Cd  Cd117  1  0.50141040  0.75694391  0.37625514  1
  Cd  Cd118  1  0.50123628  0.74533894  0.62376319  1
  Cd  Cd119  1  0.50184431  0.74502695  0.87619620  1
  Cd  Cd120  1  0.24514342  0.00293092  0.12507759  1
  Cd  Cd121  1  0.24631213  0.00150289  0.37497890  1
  Cd  Cd122  1  0.24963063  0.99459016  0.62413865  1
  Cd  Cd123  1  0.24916815  0.99324093  0.87616436  1
  Cd  Cd124  1  0.74689721  0.99906488  0.12519507  1
  Cd  Cd125  1  0.74620239  -0.00006227  0.37474130  1
  Cd  Cd126  1  0.75560301  0.99982156  0.62421203  1
  Cd  Cd127  1  0.75600841  0.00192167  0.87597731  1
  K  K128  1  0.97632212  0.02263313  0.01275709  1
  K  K129  1  0.99570362  0.00529020  0.24919345  1
  K  K130  1  0.97685865  0.02138587  0.48894583  1
  K  K131  1  0.98621985  0.01575491  0.75308755  1
  K  K132  1  0.51083656  0.99241196  0.97393454  1
  K  K133  1  0.51335378  0.98280668  0.25123570  1
  K  K134  1  0.51230650  0.99003028  0.52308068  1
  K  K135  1  0.53504565  0.96565333  0.74969627  1
  K  K136  1  0.26980907  0.22767885  0.98828491  1
  K  K137  1  0.26142568  0.23081761  0.25748737  1
  K  K138  1  0.27001967  0.22595513  0.51167633  1
  K  K139  1  0.25701543  0.23964336  0.75111425  1
  K  K140  1  0.01362613  0.49148219  0.97598767  1
  K  K141  1  0.01026519  0.48139148  0.24854798  1
  K  K142  1  0.01106108  0.48900688  0.52269005  1
  K  K143  1  0.03480475  0.46421926  0.74996985  1
  K  K144  1  0.73456053  0.26222300  0.02460885  1
  K  K145  1  0.71119260  0.28753508  0.24907480  1
  K  K146  1  0.73588677  0.26185370  0.47791343  1
  K  K147  1  0.73453312  0.26566969  0.75035465  1
  K  K148  1  0.47771155  0.52274366  0.01407463  1
  K  K149  1  0.49522561  0.50558504  0.24780798  1
  K  K150  1  0.47743116  0.52293422  0.48706622  1
  K  K151  1  0.48604577  0.51623340  0.74299644  1
  K  K152  1  0.23155448  0.75998268  0.02464925  1
  K  K153  1  0.27455850  0.72106618  0.25003481  1
  K  K154  1  0.23563616  0.76193312  0.47736233  1
  K  K155  1  0.23576567  0.76896105  0.74876079  1
  K  K156  1  0.76974635  0.72722019  0.98854339  1
  K  K157  1  0.76314245  0.73395084  0.25866744  1
  K  K158  1  0.77267997  0.72862421  0.51166662  1
  K  K159  1  0.75794740  0.74175560  0.75134788  1
