# generated using pymatgen
data_KCdCl3
_symmetry_space_group_name_H-M   'P 1'
_cell_length_a   14.88119939
_cell_length_b   14.88119939
_cell_length_c   21.04519400
_cell_angle_alpha   90.00000000
_cell_angle_beta   90.00000000
_cell_angle_gamma   90.00000000
_symmetry_Int_Tables_number   1
_chemical_formula_structural   KCdCl3
_chemical_formula_sum   'K32 Cd32 Cl96'
_cell_volume   4660.46021583
_cell_formula_units_Z   32
loop_
 _symmetry_equiv_pos_site_id
 _symmetry_equiv_pos_as_xyz
  1  'x, y, z'
loop_
 _atom_site_type_symbol
 _atom_site_label
 _atom_site_symmetry_multiplicity
 _atom_site_fract_x
 _atom_site_fract_y
 _atom_site_fract_z
 _atom_site_occupancy
  Cd  Cd0  1  -0.00090077  0.25110367  0.12385852  1
  Cd  Cd1  1  0.00021923  0.24993891  0.37424890  1
  Cd  Cd2  1  0.99916109  0.25110390  0.62388858  1
  Cd  Cd3  1  -0.00105274  0.25108971  0.87388634  1
  Cd  Cd4  1  0.49907921  0.25105927  0.12381275  1
  Cd  Cd5  1  0.50059205  0.24931480  0.37386364  1
  Cd  Cd6  1  0.49924274  0.25107637  0.62380236  1
  Cd  Cd7  1  0.49904431  0.25123776  0.87373134  1
  Cd  Cd8  1  0.24903544  0.50096718  0.12404497  1
  Cd  Cd9  1  0.25036867  0.49984917  0.37418735  1
  Cd  Cd10  1  0.24905149  0.50092959  0.62417993  1
  Cd  Cd11  1  0.24893170  0.50100581  0.87394199  1
  Cd  Cd12  1  0.99918453  0.75116868  0.12382332  1
  Cd  Cd13  1  0.00061465  0.74964077  0.37390476  1
  Cd  Cd14  1  -0.00081285  0.75119530  0.62382025  1
  Cd  Cd15  1  0.99897411  0.75116819  0.87385637  1
  Cd  Cd16  1  0.74900954  0.50096759  0.12374666  1
  Cd  Cd17  1  0.75067575  0.49999868  0.37387619  1
  Cd  Cd18  1  0.74914286  0.50103308  0.62377797  1
  Cd  Cd19  1  0.74901734  0.50127076  0.87376202  1
  Cd  Cd20  1  0.49911899  0.75112038  0.12404590  1
  Cd  Cd21  1  0.50013628  0.74978687  0.37412063  1
  Cd  Cd22  1  0.49916267  0.75104321  0.62412157  1
  Cd  Cd23  1  0.49891685  0.75111986  0.87415737  1
  Cd  Cd24  1  0.24911753  0.00099505  0.12379330  1
  Cd  Cd25  1  0.25083289  -0.00003465  0.37394408  1
  Cd  Cd26  1  0.24897460  0.00100846  0.62374299  1
  Cd  Cd27  1  0.24901643  0.00127122  0.87381153  1
  Cd  Cd28  1  0.74908029  0.00096409  0.12382108  1
  Cd  Cd29  1  0.75053240  -0.00031629  0.37365037  1
  Cd  Cd30  1  0.74909990  0.00105121  0.62378297  1
  Cd  Cd31  1  0.74890234  0.00112663  0.87373447  1
  Cl  Cl32  1  0.04163653  0.25145643  -0.00045856  1
  Cl  Cl33  1  0.95741203  0.25042103  0.24877860  1
  Cl  Cl34  1  0.04287313  0.25081192  0.49965579  1
  Cl  Cl35  1  0.95616801  0.25109072  0.74882764  1
  Cl  Cl36  1  0.49955651  0.29400194  0.99856236  1
  Cl  Cl37  1  0.49889946  0.20763383  0.24955841  1
  Cl  Cl38  1  0.49994200  0.29347059  0.49870818  1
  Cl  Cl39  1  0.49892744  0.20827594  0.74944902  1
  Cl  Cl40  1  0.24876263  0.45861176  -0.00036463  1
  Cl  Cl41  1  0.24989286  0.54266063  0.24887571  1
  Cl  Cl42  1  0.24964338  0.45772021  0.49978458  1
  Cl  Cl43  1  0.24910145  0.54410596  0.74891753  1
  Cl  Cl44  1  -0.00071468  0.79410793  0.99872141  1
  Cl  Cl45  1  -0.00071281  0.70747665  0.24958003  1
  Cl  Cl46  1  -0.00002307  0.79343994  0.49865187  1
  Cl  Cl47  1  -0.00132258  0.70860463  0.74951163  1
  Cl  Cl48  1  0.70601755  0.50095616  0.99872406  1
  Cl  Cl49  1  0.79248810  0.50100018  0.24950430  1
  Cl  Cl50  1  0.70688980  0.50049780  0.49874121  1
  Cl  Cl51  1  0.79180098  0.50167605  0.74943505  1
  Cl  Cl52  1  0.54147367  0.75124786  -0.00026582  1
  Cl  Cl53  1  0.45725161  0.75018432  0.24883980  1
  Cl  Cl54  1  0.54260566  0.75053995  0.49967615  1
  Cl  Cl55  1  0.45617934  0.75120095  0.74899609  1
  Cl  Cl56  1  0.20608844  0.00100596  0.99867649  1
  Cl  Cl57  1  0.29257765  0.00112803  0.24954604  1
  Cl  Cl58  1  0.20665719  0.00003314  0.49866494  1
  Cl  Cl59  1  0.29161542  0.00140812  0.74945777  1
  Cl  Cl60  1  0.74877816  0.95865150  -0.00035989  1
  Cl  Cl61  1  0.74990528  0.04303336  0.24856883  1
  Cl  Cl62  1  0.74950324  0.95760135  0.49948746  1
  Cl  Cl63  1  0.74906591  0.04390592  0.74868019  1
  Cl  Cl64  1  0.10295056  0.10375105  0.14552047  1
  Cl  Cl65  1  0.14651254  0.14710529  0.35314233  1
  Cl  Cl66  1  0.10269006  0.10390492  0.64554097  1
  Cl  Cl67  1  0.14537543  0.14870706  0.85289283  1
  Cl  Cl68  1  0.60179512  0.10476598  0.10294973  1
  Cl  Cl69  1  0.64744361  0.14620680  0.39543230  1
  Cl  Cl70  1  0.60202409  0.10441141  0.60280868  1
  Cl  Cl71  1  0.64615567  0.14756534  0.89541598  1
  Cl  Cl72  1  0.39643604  0.39716854  0.14551767  1
  Cl  Cl73  1  0.35306727  0.35347505  0.35328024  1
  Cl  Cl74  1  0.39619675  0.39713818  0.64579662  1
  Cl  Cl75  1  0.35166191  0.35489737  0.85293502  1
  Cl  Cl76  1  0.10182224  0.60478858  0.10304373  1
  Cl  Cl77  1  0.14741000  0.64615191  0.39575296  1
  Cl  Cl78  1  0.10214804  0.60455885  0.60299502  1
  Cl  Cl79  1  0.14591004  0.64760448  0.89560062  1
  Cl  Cl80  1  0.89536970  0.39823434  0.10292925  1
  Cl  Cl81  1  0.85383751  0.35299112  0.39569905  1
  Cl  Cl82  1  0.89580416  0.39827274  0.60286581  1
  Cl  Cl83  1  0.85239012  0.35427394  0.89552703  1
  Cl  Cl84  1  0.60301274  0.60370084  0.14568745  1
  Cl  Cl85  1  0.64660431  0.64714164  0.35311390  1
  Cl  Cl86  1  0.60293980  0.60391969  0.64570309  1
  Cl  Cl87  1  0.64528811  0.64870780  0.85301187  1
  Cl  Cl88  1  0.39554412  0.89845980  0.10296482  1
  Cl  Cl89  1  0.35393232  0.85278252  0.39565911  1
  Cl  Cl90  1  0.39557052  0.89791807  0.60292675  1
  Cl  Cl91  1  0.35236559  0.85425997  0.89555685  1
  Cl  Cl92  1  0.89641436  0.89708815  0.14565690  1
  Cl  Cl93  1  0.85305938  0.85362276  0.35294679  1
  Cl  Cl94  1  0.89620991  0.89754366  0.64545240  1
  Cl  Cl95  1  0.85144862  0.85479949  0.85288275  1
  Cl  Cl96  1  0.85757126  0.14259805  0.09888167  1
  Cl  Cl97  1  0.90094728  0.09930126  0.38989482  1
  Cl  Cl98  1  0.85779988  0.14245490  0.59868440  1
  Cl  Cl99  1  0.89945209  0.10071515  0.89034383  1
  Cl  Cl100  1  0.34850399  0.15167580  0.10807974  1
  Cl  Cl101  1  0.39157268  0.10862878  0.40009779  1
  Cl  Cl102  1  0.34869337  0.15137359  0.60823739  1
  Cl  Cl103  1  0.38986204  0.11042111  0.89958609  1
  Cl  Cl104  1  0.14053354  0.35959719  0.14949880  1
  Cl  Cl105  1  0.09957910  0.40061609  0.35844057  1
  Cl  Cl106  1  0.14038699  0.35985912  0.64994016  1
  Cl  Cl107  1  0.09774334  0.40240673  0.85861004  1
  Cl  Cl108  1  0.84862844  0.65147630  0.10817153  1
  Cl  Cl109  1  0.89145115  0.60892231  0.39990246  1
  Cl  Cl110  1  0.84884135  0.65163056  0.60826612  1
  Cl  Cl111  1  0.88959099  0.61062818  0.89989299  1
  Cl  Cl112  1  0.64968702  0.35034118  0.14049040  1
  Cl  Cl113  1  0.60956069  0.39065827  0.34909969  1
  Cl  Cl114  1  0.64997024  0.35025158  0.64012931  1
  Cl  Cl115  1  0.60745238  0.39280869  0.84863787  1
  Cl  Cl116  1  0.35753561  0.64252555  0.09913708  1
  Cl  Cl117  1  0.40109451  0.59900854  0.39004510  1
  Cl  Cl118  1  0.35824328  0.64196375  0.59912885  1
  Cl  Cl119  1  0.39916809  0.60084285  0.89058834  1
  Cl  Cl120  1  0.14978378  0.85041216  0.14045669  1
  Cl  Cl121  1  0.10967196  0.89057921  0.34889442  1
  Cl  Cl122  1  0.14977943  0.85030308  0.64015898  1
  Cl  Cl123  1  0.10734880  0.89285108  0.84878375  1
  Cl  Cl124  1  0.64055542  0.85960785  0.14958977  1
  Cl  Cl125  1  0.59978429  0.90038317  0.35827371  1
  Cl  Cl126  1  0.64017266  0.85989392  0.64971507  1
  Cl  Cl127  1  0.59777177  0.90221908  0.85876648  1
  K  K128  1  0.98828029  0.01183960  0.01710783  1
  K  K129  1  0.98411411  0.01644567  0.25974262  1
  K  K130  1  0.98863506  0.01137917  0.51711858  1
  K  K131  1  0.98124085  0.01873265  0.75928660  1
  K  K132  1  0.51566371  0.98492628  -0.01106244  1
  K  K133  1  0.51014396  0.99007175  0.23231225  1
  K  K134  1  0.51764198  0.98231808  0.48925813  1
  K  K135  1  0.50961973  0.99043121  0.73206842  1
  K  K136  1  0.25936606  0.24083814  0.98206321  1
  K  K137  1  0.26656346  0.23360004  0.23902734  1
  K  K138  1  0.26113155  0.24030602  0.48159545  1
  K  K139  1  0.26673709  0.23354917  0.73885415  1
  K  K140  1  0.01566851  0.48480709  0.98901195  1
  K  K141  1  0.01002480  0.48978729  0.23226429  1
  K  K142  1  0.01753655  0.48342242  0.48902647  1
  K  K143  1  0.00955994  0.49072122  0.73178584  1
  K  K144  1  0.73130037  0.26871964  0.00928715  1
  K  K145  1  0.74008819  0.26061787  0.26627063  1
  K  K146  1  0.73136466  0.26871625  0.50929859  1
  K  K147  1  0.73836788  0.26182436  0.76712842  1
  K  K148  1  0.48819954  0.51171146  0.01712139  1
  K  K149  1  0.48395595  0.51618670  0.25983945  1
  K  K150  1  0.48893239  0.51139988  0.51712957  1
  K  K151  1  0.48115092  0.51899865  0.75936783  1
  K  K152  1  0.23139754  0.76866921  0.00936230  1
  K  K153  1  0.23955329  0.75992711  0.26621678  1
  K  K154  1  0.23177592  0.76837231  0.50945963  1
  K  K155  1  0.23813831  0.76220547  0.76731486  1
  K  K156  1  0.75927275  0.74090909  0.98237208  1
  K  K157  1  0.76662082  0.73350432  0.23883642  1
  K  K158  1  0.76037361  0.73971332  0.48157224  1
  K  K159  1  0.76617127  0.73383917  0.73880534  1
