# generated using pymatgen
data_KCdF3
_symmetry_space_group_name_H-M   'P 1'
_cell_length_a   12.64108086
_cell_length_b   12.64108086
_cell_length_c   17.87718700
_cell_angle_alpha   90.00000000
_cell_angle_beta   90.00000000
_cell_angle_gamma   90.00000000
_symmetry_Int_Tables_number   1
_chemical_formula_structural   KCdF3
_chemical_formula_sum   'K32 Cd32 F96'
_cell_volume   2856.71951729
_cell_formula_units_Z   32
loop_
 _symmetry_equiv_pos_site_id
 _symmetry_equiv_pos_as_xyz
  1  'x, y, z'
loop_
 _atom_site_type_symbol
 _atom_site_label
 _atom_site_symmetry_multiplicity
 _atom_site_fract_x
 _atom_site_fract_y
 _atom_site_fract_z
 _atom_site_occupancy
  Cd  Cd0  1  0.00016356  0.25090781  0.12508399  1
  Cd  Cd1  1  0.99981622  0.25075482  0.37493644  1
  Cd  Cd2  1  0.00044177  0.25106737  0.62497263  1
  Cd  Cd3  1  0.00043061  0.25061443  0.87459417  1
  Cd  Cd4  1  0.50024786  0.25094624  0.12449032  1
  Cd  Cd5  1  0.50142501  0.25163146  0.37433682  1
  Cd  Cd6  1  0.50036390  0.25115923  0.62471331  1
  Cd  Cd7  1  0.49962774  0.25015969  0.87480933  1
  Cd  Cd8  1  0.24998449  0.50036590  0.12509776  1
  Cd  Cd9  1  0.25004846  0.50402527  0.37564124  1
  Cd  Cd10  1  0.25028596  0.50130857  0.62500022  1
  Cd  Cd11  1  0.25038660  0.49777033  0.87390002  1
  Cd  Cd12  1  0.00008860  0.75064731  0.12497529  1
  Cd  Cd13  1  0.00135597  0.75183849  0.37414156  1
  Cd  Cd14  1  0.00032812  0.75151645  0.62445785  1
  Cd  Cd15  1  0.99953289  0.75044682  0.87489196  1
  Cd  Cd16  1  0.75035341  0.50105326  0.12462835  1
  Cd  Cd17  1  0.75021826  0.50168977  0.37416954  1
  Cd  Cd18  1  0.75038768  0.50119737  0.62466708  1
  Cd  Cd19  1  0.75032776  0.49994017  0.87489022  1
  Cd  Cd20  1  0.50018221  0.75067893  0.12507373  1
  Cd  Cd21  1  0.49988037  0.75079587  0.37485141  1
  Cd  Cd22  1  0.50049126  0.75102592  0.62485852  1
  Cd  Cd23  1  0.50063072  0.75063813  0.87463177  1
  Cd  Cd24  1  0.25019048  0.00111210  0.12479685  1
  Cd  Cd25  1  0.25038432  0.00180242  0.37405305  1
  Cd  Cd26  1  0.25043122  0.00126032  0.62447517  1
  Cd  Cd27  1  0.25023585  0.99996864  0.87493221  1
  Cd  Cd28  1  0.74995274  0.00056562  0.12512009  1
  Cd  Cd29  1  0.74985203  0.00398373  0.37541713  1
  Cd  Cd30  1  0.75030456  0.00104765  0.62508412  1
  Cd  Cd31  1  0.75069115  0.99810378  0.87421636  1
  F  F32  1  0.00938024  0.28729343  0.99975632  1
  F  F33  1  0.99073432  0.21442059  0.25016800  1
  F  F34  1  0.00576080  0.28957061  0.50006457  1
  F  F35  1  0.99502694  0.21175290  0.74955771  1
  F  F36  1  0.52415401  0.27585777  0.99958713  1
  F  F37  1  0.47652194  0.22651376  0.24938914  1
  F  F38  1  0.52961220  0.26799388  0.49948475  1
  F  F39  1  0.47081596  0.23452802  0.74974207  1
  F  F40  1  0.24711272  0.47235609  0.99976204  1
  F  F41  1  0.25364541  0.52903590  0.25002548  1
  F  F42  1  0.22000783  0.48583769  0.50045441  1
  F  F43  1  0.28059282  0.51817377  0.74936123  1
  F  F44  1  0.02424372  0.77492822  0.99994305  1
  F  F45  1  0.97595351  0.72534358  0.24956417  1
  F  F46  1  0.02942464  0.76843184  0.49920382  1
  F  F47  1  0.97118405  0.73576427  0.74968466  1
  F  F48  1  0.76239564  0.46405954  0.99978207  1
  F  F49  1  0.73916193  0.53769127  0.24935710  1
  F  F50  1  0.75027750  0.46446264  0.49919554  1
  F  F51  1  0.75046240  0.53761390  0.75000340  1
  F  F52  1  0.50902440  0.78721691  0.99978820  1
  F  F53  1  0.49094722  0.71403857  0.25001955  1
  F  F54  1  0.50579734  0.78960531  0.49995084  1
  F  F55  1  0.49495428  0.71205387  0.74958912  1
  F  F56  1  0.26041873  0.96398320  0.99996124  1
  F  F57  1  0.24031644  0.03860663  0.24940995  1
  F  F58  1  0.25106548  0.96443667  0.49898616  1
  F  F59  1  0.25092917  0.03721583  0.74995185  1
  F  F60  1  0.74770414  0.97231719  0.99997006  1
  F  F61  1  0.75155908  0.03023022  0.24990544  1
  F  F62  1  0.72061886  0.98566370  0.50037468  1
  F  F63  1  0.78110444  0.01720129  0.74947071  1
  F  F64  1  0.10448007  0.10534873  0.10653048  1
  F  F65  1  0.10482238  0.10679140  0.39349323  1
  F  F66  1  0.14700936  0.14750392  0.60829382  1
  F  F67  1  0.10376137  0.10305445  0.89240593  1
  F  F68  1  0.60139366  0.10211533  0.11480982  1
  F  F69  1  0.59889637  0.10177722  0.37519772  1
  F  F70  1  0.64829575  0.14941347  0.63425017  1
  F  F71  1  0.60353383  0.10162053  0.87377950  1
  F  F72  1  0.39887005  0.39949700  0.13435801  1
  F  F73  1  0.39677358  0.39979107  0.37523413  1
  F  F74  1  0.35234234  0.35300160  0.61567061  1
  F  F75  1  0.40118197  0.39963926  0.87380719  1
  F  F76  1  0.10154316  0.60185457  0.11547645  1
  F  F77  1  0.09946549  0.60232358  0.37508889  1
  F  F78  1  0.14809087  0.64965442  0.63392366  1
  F  F79  1  0.10347820  0.60181155  0.87371858  1
  F  F80  1  0.89555866  0.39623759  0.14418639  1
  F  F81  1  0.89670253  0.39853381  0.35715364  1
  F  F82  1  0.85412529  0.35513080  0.64111779  1
  F  F83  1  0.89619004  0.39516326  0.85549459  1
  F  F84  1  0.60496546  0.60556493  0.10569565  1
  F  F85  1  0.60468240  0.60660188  0.39336015  1
  F  F86  1  0.64669872  0.64721767  0.60812343  1
  F  F87  1  0.60385752  0.60307797  0.89267879  1
  F  F88  1  0.39513906  0.89597340  0.14363388  1
  F  F89  1  0.39660936  0.89830493  0.35655331  1
  F  F90  1  0.35413097  0.85510930  0.64114019  1
  F  F91  1  0.39599279  0.89494687  0.85600403  1
  F  F92  1  0.89886978  0.89962243  0.13478569  1
  F  F93  1  0.89679948  0.90003953  0.37463490  1
  F  F94  1  0.85218579  0.85274210  0.61535301  1
  F  F95  1  0.90152443  0.90012778  0.87437092  1
  F  F96  1  0.85420563  0.14728582  0.10675650  1
  F  F97  1  0.85043787  0.15212523  0.39156593  1
  F  F98  1  0.88989451  0.11215632  0.59904272  1
  F  F99  1  0.85258596  0.14829590  0.89160596  1
  F  F100  1  0.35431390  0.14679313  0.10436196  1
  F  F101  1  0.35490768  0.14712033  0.39488057  1
  F  F102  1  0.40052355  0.10079848  0.61119951  1
  F  F103  1  0.35975333  0.14039011  0.89871368  1
  F  F104  1  0.14648929  0.35377676  0.14368588  1
  F  F105  1  0.14758019  0.35399105  0.35899084  1
  F  F106  1  0.11077312  0.39035274  0.65082723  1
  F  F107  1  0.15035468  0.34909383  0.85853789  1
  F  F108  1  0.85408618  0.64700395  0.10471727  1
  F  F109  1  0.85492727  0.64687397  0.39491662  1
  F  F110  1  0.90051966  0.60082064  0.61152857  1
  F  F111  1  0.85934563  0.64105364  0.89814647  1
  F  F112  1  0.64676598  0.35460300  0.14365727  1
  F  F113  1  0.64076500  0.36138365  0.34975734  1
  F  F114  1  0.60030307  0.40156238  0.63774294  1
  F  F115  1  0.64591018  0.35491922  0.85370788  1
  F  F116  1  0.35416557  0.64709953  0.10662037  1
  F  F117  1  0.35039583  0.65232135  0.39131585  1
  F  F118  1  0.38993683  0.61215166  0.59874248  1
  F  F119  1  0.35305878  0.64752297  0.89173344  1
  F  F120  1  0.14593116  0.85512811  0.14476048  1
  F  F121  1  0.14062605  0.86184043  0.34939401  1
  F  F122  1  0.10017580  0.90197263  0.63732659  1
  F  F123  1  0.14594564  0.85487862  0.85381345  1
  F  F124  1  0.64613382  0.85404205  0.14358477  1
  F  F125  1  0.64788069  0.85359941  0.35897474  1
  F  F126  1  0.61071439  0.89030827  0.65081467  1
  F  F127  1  0.65040482  0.84938202  0.85886564  1
  K  K128  1  0.98374274  0.99977016  0.00197657  1
  K  K129  1  0.01538455  0.99555238  0.25056013  1
  K  K130  1  0.00839956  0.99199002  0.50278133  1
  K  K131  1  0.00737925  0.99675509  0.75867560  1
  K  K132  1  0.48580336  0.00666010  0.99850524  1
  K  K133  1  0.51565277  0.00281238  0.24824086  1
  K  K134  1  0.49290146  0.00453388  0.49041007  1
  K  K135  1  0.49103534  0.01075135  0.74611244  1
  K  K136  1  0.23153205  0.24919688  0.99808011  1
  K  K137  1  0.26034071  0.25113316  0.24968291  1
  K  K138  1  0.23690910  0.26165582  0.49476623  1
  K  K139  1  0.24687644  0.25438658  0.73917765  1
  K  K140  1  0.98598254  0.50695387  0.99841740  1
  K  K141  1  0.01630187  0.50197958  0.24898120  1
  K  K142  1  0.99290347  0.50473544  0.49047881  1
  K  K143  1  0.99145853  0.51138662  0.74603782  1
  K  K144  1  0.74118246  0.25186904  0.00123827  1
  K  K145  1  0.76865679  0.25286300  0.25042286  1
  K  K146  1  0.75408757  0.24690677  0.51042702  1
  K  K147  1  0.76398815  0.24115766  0.75448968  1
  K  K148  1  0.48212910  0.50063143  0.00136302  1
  K  K149  1  0.51440811  0.49501667  0.25083007  1
  K  K150  1  0.50944467  0.49127955  0.50322360  1
  K  K151  1  0.50754012  0.49698416  0.75880220  1
  K  K152  1  0.24129434  0.75151854  0.00093245  1
  K  K153  1  0.26862718  0.75228262  0.25049750  1
  K  K154  1  0.25422255  0.74698726  0.51041850  1
  K  K155  1  0.26386806  0.74131747  0.75442579  1
  K  K156  1  0.73135393  0.74900165  0.99832847  1
  K  K157  1  0.75950449  0.75022052  0.24931729  1
  K  K158  1  0.73685837  0.76153229  0.49462749  1
  K  K159  1  0.74727862  0.75482166  0.73968437  1
