# generated using pymatgen
data_KCdI3
_symmetry_space_group_name_H-M   'P 1'
_cell_length_a   16.96549279
_cell_length_b   16.96549279
_cell_length_c   23.99283100
_cell_angle_alpha   90.00000000
_cell_angle_beta   90.00000000
_cell_angle_gamma   90.00000000
_symmetry_Int_Tables_number   1
_chemical_formula_structural   KCdI3
_chemical_formula_sum   'K32 Cd32 I96'
_cell_volume   6905.80725836
_cell_formula_units_Z   32
loop_
 _symmetry_equiv_pos_site_id
 _symmetry_equiv_pos_as_xyz
  1  'x, y, z'
loop_
 _atom_site_type_symbol
 _atom_site_label
 _atom_site_symmetry_multiplicity
 _atom_site_fract_x
 _atom_site_fract_y
 _atom_site_fract_z
 _atom_site_occupancy
  Cd  Cd0  1  0.96682817  0.02718119  0.02322721  1
  Cd  Cd1  1  0.96123668  0.02993050  0.22968179  1
  Cd  Cd2  1  0.99609022  0.03138525  0.50260346  1
  Cd  Cd3  1  0.98363752  0.01963907  0.77280758  1
  Cd  Cd4  1  0.49538242  0.02359879  0.04253031  1
  Cd  Cd5  1  0.43604512  0.02768443  0.22772976  1
  Cd  Cd6  1  0.48825856  0.01211557  0.54065722  1
  Cd  Cd7  1  0.50791276  0.95851547  0.77413633  1
  Cd  Cd8  1  0.23472592  0.28776319  0.98462076  1
  Cd  Cd9  1  0.28894390  0.25906298  0.28135261  1
  Cd  Cd10  1  0.31838135  0.25839001  0.52693380  1
  Cd  Cd11  1  0.28385994  0.28815096  0.73981958  1
  Cd  Cd12  1  0.01343884  0.46335195  0.01923723  1
  Cd  Cd13  1  0.98224256  0.53713187  0.25426516  1
  Cd  Cd14  1  0.96753344  0.50449966  0.48848075  1
  Cd  Cd15  1  0.95792555  0.52080258  0.73479424  1
  Cd  Cd16  1  0.73192671  0.20430370  0.00621080  1
  Cd  Cd17  1  0.76785107  0.22013117  0.28229665  1
  Cd  Cd18  1  0.77326502  0.25030249  0.48717129  1
  Cd  Cd19  1  0.77807830  0.25852759  0.71331550  1
  Cd  Cd20  1  0.48184131  0.48045368  0.95145264  1
  Cd  Cd21  1  0.55506484  0.47219189  0.25177676  1
  Cd  Cd22  1  0.52079743  0.44546459  0.51686231  1
  Cd  Cd23  1  0.46170810  0.50293910  0.73924002  1
  Cd  Cd24  1  0.18576948  0.75857898  0.02160309  1
  Cd  Cd25  1  0.28224250  0.78272756  0.25190611  1
  Cd  Cd26  1  0.26578453  0.74427569  0.46132997  1
  Cd  Cd27  1  0.19473174  0.77166601  0.75584223  1
  Cd  Cd28  1  0.75497010  0.69066935  0.96643670  1
  Cd  Cd29  1  0.75123166  0.70977578  0.23195516  1
  Cd  Cd30  1  0.81482487  0.76225040  0.50955631  1
  Cd  Cd31  1  0.70258398  0.69552846  0.75708215  1
  I  I32  1  0.07961189  0.13707775  0.05328960  1
  I  I33  1  0.10754763  0.09713416  0.23712484  1
  I  I34  1  0.18265997  0.16658585  0.53268693  1
  I  I35  1  0.06106645  0.15648213  0.74503125  1
  I  I36  1  0.57438142  0.14254644  0.97505395  1
  I  I37  1  0.67614484  0.08477672  0.29076191  1
  I  I38  1  0.69256998  0.10701602  0.46584879  1
  I  I39  1  0.58613966  0.10254596  0.79326311  1
  I  I40  1  0.39841722  0.32553013  0.96077297  1
  I  I41  1  0.38555392  0.38262368  0.23606756  1
  I  I42  1  0.36489998  0.41255760  0.47650747  1
  I  I43  1  0.42887539  0.34556827  0.78705723  1
  I  I44  1  0.08960963  0.65791826  0.96020523  1
  I  I45  1  0.13632220  0.58973311  0.26498872  1
  I  I46  1  0.18371156  0.60205879  0.43914763  1
  I  I47  1  0.05657559  0.67497233  0.78108648  1
  I  I48  1  0.92343497  0.32804991  0.02107468  1
  I  I49  1  0.90158739  0.40946708  0.21303914  1
  I  I50  1  0.82644995  0.42508396  0.51957818  1
  I  I51  1  0.90014769  0.36371004  0.68391012  1
  I  I52  1  0.60319905  0.65070953  -0.00280509  1
  I  I53  1  0.71751388  0.54905139  0.25652625  1
  I  I54  1  0.61015448  0.58398828  0.51831206  1
  I  I55  1  0.58163935  0.62919119  0.69216802  1
  I  I56  1  0.33712885  0.81603548  0.01157656  1
  I  I57  1  0.37257186  0.88898680  0.17703164  1
  I  I58  1  0.33646285  0.95718060  0.52990754  1
  I  I59  1  0.39905698  0.88122167  0.70897788  1
  I  I60  1  0.83234480  0.83353165  0.96561717  1
  I  I61  1  0.87968294  0.92191870  0.29270242  1
  I  I62  1  0.87110793  0.91719404  0.47345913  1
  I  I63  1  0.89330230  0.88453236  0.75570358  1
  I  I64  1  0.79755765  0.04919323  0.03202740  1
  I  I65  1  0.86921674  0.16658975  0.19480764  1
  I  I66  1  0.92542126  0.18665761  0.53126891  1
  I  I67  1  0.81420195  0.10244651  0.73594785  1
  I  I68  1  0.33987236  0.07161992  0.03277904  1
  I  I69  1  0.32520824  0.14675475  0.19665497  1
  I  I70  1  0.46979314  0.18534765  0.53093231  1
  I  I71  1  0.33100124  0.13047580  0.73226919  1
  I  I72  1  0.13909759  0.41899596  0.94492270  1
  I  I73  1  0.14475661  0.33943508  0.28817612  1
  I  I74  1  0.09488349  0.40313733  0.49863080  1
  I  I75  1  0.15328927  0.36684994  0.77800611  1
  I  I76  1  0.85760253  0.56499328  0.00880444  1
  I  I77  1  0.92049025  0.69816841  0.23972351  1
  I  I78  1  0.95796302  0.67083629  0.52195689  1
  I  I79  1  0.83616587  0.62666436  0.69037196  1
  I  I80  1  0.61702209  0.40553108  0.99014843  1
  I  I81  1  0.62157476  0.31389807  0.26407735  1
  I  I82  1  0.61901270  0.34392842  0.45122980  1
  I  I83  1  0.67115695  0.35788431  0.76773412  1
  I  I84  1  0.36459741  0.57607057  0.99436114  1
  I  I85  1  0.36526418  0.64736154  0.22155324  1
  I  I86  1  0.38993766  0.69054860  0.52957514  1
  I  I87  1  0.32110613  0.57720937  0.71610626  1
  I  I88  1  0.09069569  0.90249651  0.98958310  1
  I  I89  1  0.14928988  0.86341632  0.28565087  1
  I  I90  1  0.14120453  0.84819691  0.47716338  1
  I  I91  1  0.14290589  0.93197771  0.78722732  1
  I  I92  1  0.57481285  0.88333701  0.03338756  1
  I  I93  1  0.62918103  0.80974525  0.26808520  1
  I  I94  1  0.57385187  0.89624589  0.47822073  1
  I  I95  1  0.64506921  0.84437382  0.79639098  1
  I  I96  1  0.95545046  0.93168566  0.12782820  1
  I  I97  1  0.05524581  0.05106588  0.39709744  1
  I  I98  1  0.01929113  0.98009877  0.61141044  1
  I  I99  1  0.95221957  0.04523938  0.89489851  1
  I  I100  1  0.55519804  0.07794474  0.15157324  1
  I  I101  1  0.46379075  0.00014571  0.33845385  1
  I  I102  1  0.58270025  0.01246719  0.63673454  1
  I  I103  1  0.44860280  0.95425257  0.88635950  1
  I  I104  1  0.23624722  0.31461886  0.09889122  1
  I  I105  1  0.31931483  0.19658890  0.38730769  1
  I  I106  1  0.28007623  0.35093381  0.62695969  1
  I  I107  1  0.20877726  0.17484776  0.90192160  1
  I  I108  1  0.06786403  0.53216322  0.11503353  1
  I  I109  1  0.92883157  0.54142824  0.37439419  1
  I  I110  1  0.05965700  0.52441762  0.64309318  1
  I  I111  1  0.95449858  0.46489021  0.84320298  1
  I  I112  1  0.70283241  0.27201292  0.10859850  1
  I  I113  1  0.84232864  0.29300581  0.37357307  1
  I  I114  1  0.70066255  0.24911156  0.60472458  1
  I  I115  1  0.78292092  0.23013620  0.89780218  1
  I  I116  1  0.53151642  0.50894473  0.13933082  1
  I  I117  1  0.50633077  0.52976691  0.35527148  1
  I  I118  1  0.51236013  0.41157939  0.63450222  1
  I  I119  1  0.52701800  0.55290875  0.84639162  1
  I  I120  1  0.15613480  0.75770319  0.13629400  1
  I  I121  1  0.35762411  0.79167789  0.36592354  1
  I  I122  1  0.20149233  0.77465435  0.64091326  1
  I  I123  1  0.28570417  0.74666496  0.85006036  1
  I  I124  1  0.74752445  0.74908781  0.11778246  1
  I  I125  1  0.74736170  0.72118206  0.40777522  1
  I  I126  1  0.74459872  0.80789464  0.60882316  1
  I  I127  1  0.78033102  0.63654485  0.85222983  1
  K  K128  1  0.04489147  0.28031445  0.15774923  1
  K  K129  1  0.05607210  0.25109330  0.40675061  1
  K  K130  1  0.07547655  0.29625731  0.62851614  1
  K  K131  1  0.01260210  0.25693451  0.87677859  1
  K  K132  1  0.48930475  0.28000986  0.09620720  1
  K  K133  1  0.53346526  0.18671489  0.37692506  1
  K  K134  1  0.51918066  0.21066038  0.67984526  1
  K  K135  1  0.41966984  0.16037371  0.87318025  1
  K  K136  1  0.27627095  0.51756914  0.12667065  1
  K  K137  1  0.29462256  0.50517269  0.33676681  1
  K  K138  1  0.24695434  0.55363562  0.57851583  1
  K  K139  1  0.20767725  0.55490313  0.84443487  1
  K  K140  1  0.95992597  0.72273152  0.08464987  1
  K  K141  1  0.03993334  0.73050368  0.37240519  1
  K  K142  1  0.99378304  0.76809142  0.65263253  1
  K  K143  1  0.99429653  0.81541951  0.87608025  1
  K  K144  1  0.73942601  0.47555573  0.11213061  1
  K  K145  1  0.72336859  0.50784312  0.40176943  1
  K  K146  1  0.71418150  0.46870384  0.64094149  1
  K  K147  1  0.76095615  0.43474350  0.89044362  1
  K  K148  1  0.52060157  0.73337374  0.12982644  1
  K  K149  1  0.53522402  0.71720668  0.41242822  1
  K  K150  1  0.52888052  0.80103619  0.60883540  1
  K  K151  1  0.47721595  0.75383289  0.90881150  1
  K  K152  1  0.18297997  0.97473511  0.12574074  1
  K  K153  1  0.25588785  0.98345234  0.39070406  1
  K  K154  1  0.22279707  0.99305978  0.64965887  1
  K  K155  1  0.25251911  0.96006564  0.91452393  1
  K  K156  1  0.73881441  0.95442064  0.16968498  1
  K  K157  1  0.71571300  0.93305167  0.37861504  1
  K  K158  1  0.78306852  0.02794844  0.59364235  1
  K  K159  1  0.74280516  0.01658499  0.87734003  1
