# generated using pymatgen
data_KGaBr3
_symmetry_space_group_name_H-M   'P 1'
_cell_length_a   15.34731569
_cell_length_b   15.34731569
_cell_length_c   21.70438200
_cell_angle_alpha   90.00000000
_cell_angle_beta   90.00000000
_cell_angle_gamma   90.00000000
_symmetry_Int_Tables_number   1
_chemical_formula_structural   KGaBr3
_chemical_formula_sum   'K32 Ga32 Br96'
_cell_volume   5112.25228503
_cell_formula_units_Z   32
loop_
 _symmetry_equiv_pos_site_id
 _symmetry_equiv_pos_as_xyz
  1  'x, y, z'
loop_
 _atom_site_type_symbol
 _atom_site_label
 _atom_site_symmetry_multiplicity
 _atom_site_fract_x
 _atom_site_fract_y
 _atom_site_fract_z
 _atom_site_occupancy
  Br  Br0  1  0.11319300  0.16396229  0.98645418  1
  Br  Br1  1  0.13943500  0.12503552  0.31879299  1
  Br  Br2  1  0.10709795  0.11179133  0.49869035  1
  Br  Br3  1  0.13632311  0.07814964  0.76188313  1
  Br  Br4  1  0.60090816  0.13264002  0.97402723  1
  Br  Br5  1  0.64728159  0.12851086  0.27134355  1
  Br  Br6  1  0.59337765  0.14975537  0.47240153  1
  Br  Br7  1  0.67207824  0.11701774  0.77907449  1
  Br  Br8  1  0.39999363  0.33623743  0.01403656  1
  Br  Br9  1  0.36461338  0.42211293  0.22647721  1
  Br  Br10  1  0.38361093  0.37469091  0.52210494  1
  Br  Br11  1  0.37339705  0.40055560  0.74517157  1
  Br  Br12  1  0.12491263  0.63835446  0.96705774  1
  Br  Br13  1  0.16346965  0.61998181  0.26405439  1
  Br  Br14  1  0.08888384  0.65220648  0.44666162  1
  Br  Br15  1  0.17927634  0.57122031  0.78213384  1
  Br  Br16  1  0.90797075  0.34683681  0.05196882  1
  Br  Br17  1  0.84295103  0.38951476  0.24166906  1
  Br  Br18  1  0.92966761  0.31943919  0.54162142  1
  Br  Br19  1  0.82276043  0.38863060  0.73990515  1
  Br  Br20  1  0.62031807  0.65808801  0.97430380  1
  Br  Br21  1  0.63518799  0.59903186  0.26045006  1
  Br  Br22  1  0.58908235  0.68806705  0.47979102  1
  Br  Br23  1  0.64779428  0.58722612  0.76216097  1
  Br  Br24  1  0.41838727  0.86797615  0.01846146  1
  Br  Br25  1  0.32785981  0.90792838  0.23502580  1
  Br  Br26  1  0.40015446  0.88466572  0.51787156  1
  Br  Br27  1  0.35933192  0.89656412  0.71572362  1
  Br  Br28  1  0.88197459  0.84343742  0.01064145  1
  Br  Br29  1  0.85814638  0.89802602  0.21684224  1
  Br  Br30  1  0.85570252  0.84074423  0.50863803  1
  Br  Br31  1  0.85706929  0.90481171  0.73548438  1
  Br  Br32  1  0.83319203  0.11731826  0.03075816  1
  Br  Br33  1  0.88878863  0.15532348  0.22972296  1
  Br  Br34  1  0.84713888  0.10084115  0.52479671  1
  Br  Br35  1  0.88194816  0.16717307  0.72863643  1
  Br  Br36  1  0.36773273  0.08563096  0.96698867  1
  Br  Br37  1  0.36323939  0.17504639  0.26441249  1
  Br  Br38  1  0.36560053  0.11067130  0.47350331  1
  Br  Br39  1  0.38513819  0.14437180  0.77176414  1
  Br  Br40  1  0.16674504  0.39527239  0.04150880  1
  Br  Br41  1  0.14181856  0.33292235  0.22349104  1
  Br  Br42  1  0.15679392  0.43303442  0.51934576  1
  Br  Br43  1  0.07571377  0.39302209  0.69237850  1
  Br  Br44  1  0.85564219  0.60005615  0.96147598  1
  Br  Br45  1  0.89235596  0.64101308  0.26404734  1
  Br  Br46  1  0.82427665  0.61255555  0.44765538  1
  Br  Br47  1  0.93441779  0.60278872  0.75421218  1
  Br  Br48  1  0.67490460  0.35433817  0.99760734  1
  Br  Br49  1  0.58115713  0.36798239  0.27663801  1
  Br  Br50  1  0.63461281  0.41413468  0.48445236  1
  Br  Br51  1  0.60978464  0.33334124  0.78642888  1
  Br  Br52  1  0.38351929  0.60314320  0.02334690  1
  Br  Br53  1  0.41672866  0.64912728  0.21649256  1
  Br  Br54  1  0.32506230  0.65421819  0.51221480  1
  Br  Br55  1  0.41902902  0.63965290  0.71478158  1
  Br  Br56  1  0.15196673  0.90051458  0.96247943  1
  Br  Br57  1  0.10465337  0.85326854  0.29050303  1
  Br  Br58  1  0.16385770  0.87204490  0.49753391  1
  Br  Br59  1  0.08883886  0.83104536  0.77249254  1
  Br  Br60  1  0.64630606  0.91224829  0.02409789  1
  Br  Br61  1  0.59247446  0.86981258  0.21939256  1
  Br  Br62  1  0.63802119  0.92612684  0.52323972  1
  Br  Br63  1  0.62535368  0.84968712  0.72792630  1
  Br  Br64  1  0.06179986  0.98988321  0.12052620  1
  Br  Br65  1  0.94390596  0.99740364  0.37828690  1
  Br  Br66  1  0.02774769  0.97268827  0.63982971  1
  Br  Br67  1  0.96355604  0.00643682  0.86046491  1
  Br  Br68  1  0.49165742  0.05551892  0.11157078  1
  Br  Br69  1  0.50778451  0.96803765  0.38252477  1
  Br  Br70  1  0.49428377  0.05830087  0.61192760  1
  Br  Br71  1  0.52237424  0.95361522  0.87908416  1
  Br  Br72  1  0.26769526  0.19539075  0.10846364  1
  Br  Br73  1  0.25479226  0.33217622  0.37647413  1
  Br  Br74  1  0.24986519  0.22344960  0.63329306  1
  Br  Br75  1  0.25086941  0.28851221  0.89514854  1
  Br  Br76  1  0.01187288  0.55037774  0.12512068  1
  Br  Br77  1  0.97757206  0.44747556  0.40116194  1
  Br  Br78  1  0.95300265  0.55219171  0.58032321  1
  Br  Br79  1  0.01272279  0.42594139  0.86487354  1
  Br  Br80  1  0.70141556  0.26188104  0.14391682  1
  Br  Br81  1  0.77486432  0.25983468  0.36626624  1
  Br  Br82  1  0.68768872  0.24721386  0.63215901  1
  Br  Br83  1  0.83110281  0.25473564  0.88996113  1
  Br  Br84  1  0.55241579  0.48631145  0.13072257  1
  Br  Br85  1  0.46248265  0.52913800  0.36531166  1
  Br  Br86  1  0.54475632  0.46673317  0.64150615  1
  Br  Br87  1  0.48717723  0.50956687  0.86295328  1
  Br  Br88  1  0.21403643  0.76199053  0.14026844  1
  Br  Br89  1  0.30330659  0.75314330  0.35573770  1
  Br  Br90  1  0.14730208  0.69661635  0.62162617  1
  Br  Br91  1  0.31925910  0.74897140  0.86906320  1
  Br  Br92  1  0.75452202  0.70568832  0.10273945  1
  Br  Br93  1  0.72594714  0.80653008  0.37167234  1
  Br  Br94  1  0.73936700  0.69290719  0.60602846  1
  Br  Br95  1  0.75727988  0.78788330  0.87916637  1
  Ga  Ga96  1  0.01546476  0.99932682  0.99802226  1
  Ga  Ga97  1  0.99753329  0.00223330  0.24712118  1
  Ga  Ga98  1  0.97867474  0.98540500  0.50228118  1
  Ga  Ga99  1  0.00874153  0.96600264  0.75422039  1
  Ga  Ga100  1  0.50936137  0.00184520  0.99458177  1
  Ga  Ga101  1  0.49027372  0.00931805  0.24070272  1
  Ga  Ga102  1  0.50114168  0.00815189  0.49781845  1
  Ga  Ga103  1  0.50573426  0.00351966  0.74523093  1
  Ga  Ga104  1  0.24688087  0.26542626  0.00886264  1
  Ga  Ga105  1  0.22882849  0.24425399  0.28798601  1
  Ga  Ga106  1  0.24550327  0.24473105  0.50435327  1
  Ga  Ga107  1  0.24720791  0.24988950  0.75811939  1
  Ga  Ga108  1  0.01579707  0.50496209  0.99982813  1
  Ga  Ga109  1  0.00799540  0.51089788  0.25006604  1
  Ga  Ga110  1  0.00369800  0.44872927  0.50907727  1
  Ga  Ga111  1  0.04462954  0.49626926  0.77033524  1
  Ga  Ga112  1  0.80196387  0.26250808  0.99799130  1
  Ga  Ga113  1  0.76040616  0.24627141  0.24806602  1
  Ga  Ga114  1  0.73921619  0.25049915  0.49742451  1
  Ga  Ga115  1  0.73951635  0.25259153  0.73832483  1
  Ga  Ga116  1  0.51275672  0.48962602  0.00750433  1
  Ga  Ga117  1  0.49716591  0.50952136  0.24807507  1
  Ga  Ga118  1  0.49357497  0.51637582  0.50303122  1
  Ga  Ga119  1  0.50179293  0.50874325  0.74779227  1
  Ga  Ga120  1  0.26375388  0.75500456  0.99347761  1
  Ga  Ga121  1  0.23194343  0.77261172  0.25413613  1
  Ga  Ga122  1  0.18494523  0.72164535  0.51648779  1
  Ga  Ga123  1  0.26549551  0.75027125  0.74718974  1
  Ga  Ga124  1  0.76653795  0.72895668  0.98724569  1
  Ga  Ga125  1  0.74609496  0.75811035  0.23628627  1
  Ga  Ga126  1  0.74021406  0.73617750  0.47946199  1
  Ga  Ga127  1  0.75450152  0.73333889  0.73635547  1
  K  K128  1  0.03846320  0.20546481  0.12395098  1
  K  K129  1  0.97669980  0.21208670  0.40050467  1
  K  K130  1  0.03686565  0.18690112  0.63081175  1
  K  K131  1  0.03325071  0.21387420  0.84980340  1
  K  K132  1  0.48355518  0.27137573  0.14868170  1
  K  K133  1  0.47440712  0.28885800  0.39370516  1
  K  K134  1  0.46830663  0.26322296  0.64414103  1
  K  K135  1  0.47432962  0.24394639  0.88617789  1
  K  K136  1  0.24997786  0.54650458  0.13500203  1
  K  K137  1  0.25539396  0.54285024  0.38452372  1
  K  K138  1  0.27181521  0.50618128  0.63652483  1
  K  K139  1  0.27595213  0.50704862  0.91136240  1
  K  K140  1  0.98780043  0.76458277  0.14133809  1
  K  K141  1  0.94119099  0.77814106  0.37200509  1
  K  K142  1  0.94636345  0.76431896  0.63591890  1
  K  K143  1  0.98802547  0.76335309  0.89357477  1
  K  K144  1  0.76867352  0.49128921  0.12254678  1
  K  K145  1  0.73442567  0.47495105  0.35659650  1
  K  K146  1  0.75304594  0.47612003  0.60758725  1
  K  K147  1  0.73471385  0.46687393  0.87036227  1
  K  K148  1  0.53389788  0.73661894  0.10537923  1
  K  K149  1  0.51685915  0.75114066  0.33807645  1
  K  K150  1  0.52372689  0.77452924  0.61135857  1
  K  K151  1  0.53122022  0.74333286  0.84947248  1
  K  K152  1  0.27146061  0.98105795  0.08998884  1
  K  K153  1  0.28115108  0.96770073  0.37924732  1
  K  K154  1  0.26812232  0.01021954  0.60470941  1
  K  K155  1  0.29056359  0.96900846  0.85441052  1
  K  K156  1  0.71224614  0.02552955  0.14335098  1
  K  K157  1  0.72949282  0.02008115  0.39496536  1
  K  K158  1  0.72922061  0.02477614  0.64275102  1
  K  K159  1  0.74460329  0.00357408  0.90105392  1
