# generated using pymatgen
data_KGaCl3
_symmetry_space_group_name_H-M   'P 1'
_cell_length_a   14.49921889
_cell_length_b   14.49921889
_cell_length_c   20.50499100
_cell_angle_alpha   90.00000000
_cell_angle_beta   90.00000000
_cell_angle_gamma   90.00000000
_symmetry_Int_Tables_number   1
_chemical_formula_structural   KGaCl3
_chemical_formula_sum   'K32 Ga32 Cl96'
_cell_volume   4310.70988813
_cell_formula_units_Z   32
loop_
 _symmetry_equiv_pos_site_id
 _symmetry_equiv_pos_as_xyz
  1  'x, y, z'
loop_
 _atom_site_type_symbol
 _atom_site_label
 _atom_site_symmetry_multiplicity
 _atom_site_fract_x
 _atom_site_fract_y
 _atom_site_fract_z
 _atom_site_occupancy
  K  K0  1  0.97857427  0.05455189  0.00142605  1
  K  K1  1  0.01413101  0.00682146  0.26123504  1
  K  K2  1  0.98915346  0.98254761  0.51046360  1
  K  K3  1  0.98114390  0.01894965  0.72654757  1
  K  K4  1  0.46366273  0.00032165  0.99064827  1
  K  K5  1  0.44953239  0.01116924  0.27011509  1
  K  K6  1  0.53435164  0.01937613  0.48542546  1
  K  K7  1  0.53049352  0.01917196  0.77124070  1
  K  K8  1  0.24714490  0.24558254  0.96594148  1
  K  K9  1  0.23250834  0.30013168  0.24486784  1
  K  K10  1  0.28681337  0.25462529  0.50400062  1
  K  K11  1  0.30372747  0.27180893  0.74838581  1
  K  K12  1  0.99139460  0.47720644  0.00244401  1
  K  K13  1  0.95648063  0.47629162  0.24109156  1
  K  K14  1  0.00067838  0.50789470  0.49135834  1
  K  K15  1  0.04148992  0.46500468  0.74352877  1
  K  K16  1  0.69110813  0.26346289  0.01011378  1
  K  K17  1  0.69823982  0.24874752  0.23927816  1
  K  K18  1  0.79336465  0.22382715  0.48667646  1
  K  K19  1  0.75316535  0.25428608  0.76917480  1
  K  K20  1  0.45833524  0.52776710  0.02014445  1
  K  K21  1  0.50565695  0.51944034  0.24330214  1
  K  K22  1  0.53855886  0.46862562  0.49280719  1
  K  K23  1  0.53000539  0.47981299  0.76646937  1
  K  K24  1  0.26003037  0.78398494  0.01180216  1
  K  K25  1  0.26923259  0.75451753  0.26232954  1
  K  K26  1  0.23386976  0.76894879  0.50112767  1
  K  K27  1  0.26464157  0.75237568  0.75614748  1
  K  K28  1  0.73242099  0.70485252  0.99453498  1
  K  K29  1  0.71305437  0.74892983  0.24605906  1
  K  K30  1  0.78696388  0.74710328  0.46603770  1
  K  K31  1  0.77893759  0.71978635  0.73952802  1
  Ga  Ga32  1  0.98556685  0.24898178  0.12570907  1
  Ga  Ga33  1  0.03892396  0.25149851  0.37238328  1
  Ga  Ga34  1  0.02947750  0.24506539  0.62080986  1
  Ga  Ga35  1  0.99886896  0.24267267  0.86853263  1
  Ga  Ga36  1  0.43873228  0.26075804  0.12162455  1
  Ga  Ga37  1  0.49646129  0.24413480  0.37283234  1
  Ga  Ga38  1  0.52547213  0.23850057  0.62546412  1
  Ga  Ga39  1  0.49802406  0.24679461  0.88043018  1
  Ga  Ga40  1  0.20547014  0.54439123  0.12658210  1
  Ga  Ga41  1  0.27563231  0.51819770  0.40188270  1
  Ga  Ga42  1  0.28360158  0.50557774  0.62346700  1
  Ga  Ga43  1  0.25373636  0.51541167  0.88081547  1
  Ga  Ga44  1  0.00533043  0.73748173  0.13083403  1
  Ga  Ga45  1  0.01509741  0.72687034  0.33760980  1
  Ga  Ga46  1  0.98604225  0.71852073  0.61244730  1
  Ga  Ga47  1  0.97351530  0.78995249  0.89789313  1
  Ga  Ga48  1  0.73731850  0.49702730  0.12756273  1
  Ga  Ga49  1  0.75000756  0.47661087  0.37247233  1
  Ga  Ga50  1  0.75826622  0.46510253  0.62214051  1
  Ga  Ga51  1  0.76113722  0.49720467  0.87586305  1
  Ga  Ga52  1  0.49844630  0.77617842  0.12838651  1
  Ga  Ga53  1  0.49990692  0.74572278  0.38723507  1
  Ga  Ga54  1  0.53683942  0.75100759  0.61409291  1
  Ga  Ga55  1  0.51718774  0.74430815  0.87361782  1
  Ga  Ga56  1  0.23118108  0.99827303  0.12992376  1
  Ga  Ga57  1  0.24217128  0.99590065  0.41801513  1
  Ga  Ga58  1  0.24627640  0.00171030  0.62982862  1
  Ga  Ga59  1  0.23396475  0.99580779  0.82364088  1
  Ga  Ga60  1  0.73663988  0.97033972  0.11732930  1
  Ga  Ga61  1  0.74766565  0.99312020  0.35933681  1
  Ga  Ga62  1  0.74768361  0.99282680  0.62820086  1
  Ga  Ga63  1  0.76222207  0.00328482  0.88510064  1
  Cl  Cl64  1  0.03367014  0.26180482  0.98363844  1
  Cl  Cl65  1  0.00697624  0.22731511  0.26079766  1
  Cl  Cl66  1  0.00248199  0.29675298  0.47734908  1
  Cl  Cl67  1  0.96112014  0.22662429  0.75673216  1
  Cl  Cl68  1  0.45921315  0.30855179  0.01231781  1
  Cl  Cl69  1  0.45947577  0.23416868  0.23628220  1
  Cl  Cl70  1  0.52824290  0.24765336  0.50830893  1
  Cl  Cl71  1  0.52677250  0.23918096  0.74376131  1
  Cl  Cl72  1  0.24276343  0.46141929  0.98985338  1
  Cl  Cl73  1  0.29671037  0.53705333  0.29177831  1
  Cl  Cl74  1  0.20970227  0.45143802  0.49221945  1
  Cl  Cl75  1  0.26004956  0.53736119  0.75987090  1
  Cl  Cl76  1  0.93215730  0.84750800  0.99415552  1
  Cl  Cl77  1  0.08964397  0.64381879  0.22609890  1
  Cl  Cl78  1  0.00491485  0.77214880  0.50161745  1
  Cl  Cl79  1  0.99557014  0.68464007  0.72266292  1
  Cl  Cl80  1  0.74046981  0.47652595  0.01455945  1
  Cl  Cl81  1  0.73912663  0.53370914  0.24228404  1
  Cl  Cl82  1  0.75321829  0.43793320  0.48149785  1
  Cl  Cl83  1  0.74752360  0.50452855  0.74914923  1
  Cl  Cl84  1  0.49709165  0.76696469  0.98614766  1
  Cl  Cl85  1  0.49304745  0.73520823  0.25675567  1
  Cl  Cl86  1  0.58280767  0.81296942  0.51939297  1
  Cl  Cl87  1  0.47550178  0.68745624  0.77414232  1
  Cl  Cl88  1  0.23673564  0.00126445  0.01462794  1
  Cl  Cl89  1  0.24327251  0.04219631  0.23862768  1
  Cl  Cl90  1  0.34035834  0.95168676  0.54520534  1
  Cl  Cl91  1  0.18109540  0.09758145  0.71137529  1
  Cl  Cl92  1  0.68061312  0.91965668  0.02331591  1
  Cl  Cl93  1  0.80310218  0.06140622  0.26848210  1
  Cl  Cl94  1  0.77439202  0.98406141  0.47000388  1
  Cl  Cl95  1  0.75183566  0.03538554  0.75645971  1
  Cl  Cl96  1  0.09011076  0.07825424  0.12530592  1
  Cl  Cl97  1  0.18211557  0.19105131  0.37661460  1
  Cl  Cl98  1  0.16336187  0.08966514  0.55334659  1
  Cl  Cl99  1  0.06717325  0.09129820  0.86943533  1
  Cl  Cl100  1  0.55103809  0.15144071  0.10361826  1
  Cl  Cl101  1  0.66088285  0.13342677  0.37905827  1
  Cl  Cl102  1  0.58124125  0.08175013  0.62397574  1
  Cl  Cl103  1  0.60741440  0.10387262  0.90575503  1
  Cl  Cl104  1  0.37674057  0.40455412  0.14717941  1
  Cl  Cl105  1  0.37081943  0.38411501  0.39298459  1
  Cl  Cl106  1  0.46330805  0.39349513  0.62973019  1
  Cl  Cl107  1  0.36824601  0.40717705  0.86348689  1
  Cl  Cl108  1  0.10081994  0.65039460  0.04565239  1
  Cl  Cl109  1  0.15572315  0.62848583  0.40064361  1
  Cl  Cl110  1  0.11981099  0.63323153  0.59637207  1
  Cl  Cl111  1  0.10422059  0.55156326  0.87608365  1
  Cl  Cl112  1  0.83465648  0.36309723  0.14168210  1
  Cl  Cl113  1  0.83507240  0.34963806  0.33760598  1
  Cl  Cl114  1  0.92361754  0.39595533  0.62461308  1
  Cl  Cl115  1  0.91878102  0.38735901  0.86830367  1
  Cl  Cl116  1  0.62922965  0.62592364  0.11659312  1
  Cl  Cl117  1  0.65417072  0.61093086  0.38862775  1
  Cl  Cl118  1  0.60216862  0.61295970  0.61743689  1
  Cl  Cl119  1  0.58089111  0.59761600  0.90071511  1
  Cl  Cl120  1  0.38520500  0.94438359  0.13026964  1
  Cl  Cl121  1  0.35975979  0.86031585  0.38074982  1
  Cl  Cl122  1  0.35083129  0.94972195  0.70679789  1
  Cl  Cl123  1  0.41706492  0.87254924  0.86046502  1
  Cl  Cl124  1  0.84816425  0.87771401  0.15092195  1
  Cl  Cl125  1  0.84531622  0.86296118  0.34152854  1
  Cl  Cl126  1  0.90377714  0.85389907  0.63402665  1
  Cl  Cl127  1  0.90459116  0.87179972  0.82017123  1
  Cl  Cl128  1  0.79733247  0.10910356  0.10003649  1
  Cl  Cl129  1  0.95585770  0.11443743  0.39418043  1
  Cl  Cl130  1  0.88180921  0.11315819  0.60464317  1
  Cl  Cl131  1  0.85180991  0.17313021  0.90433031  1
  Cl  Cl132  1  0.30049137  0.18818031  0.10913523  1
  Cl  Cl133  1  0.38641403  0.10322002  0.39940367  1
  Cl  Cl134  1  0.37546789  0.17604739  0.62509442  1
  Cl  Cl135  1  0.34720844  0.11727305  0.86147138  1
  Cl  Cl136  1  0.09091471  0.38660366  0.13468645  1
  Cl  Cl137  1  0.08833808  0.40128798  0.34627061  1
  Cl  Cl138  1  0.18447927  0.36539297  0.64302166  1
  Cl  Cl139  1  0.14050939  0.31237361  0.84122334  1
  Cl  Cl140  1  0.86649587  0.59907175  0.11587083  1
  Cl  Cl141  1  0.87741214  0.57550564  0.37343606  1
  Cl  Cl142  1  0.86127202  0.63046452  0.58514127  1
  Cl  Cl143  1  0.90117319  0.65505970  0.89467350  1
  Cl  Cl144  1  0.61099105  0.39479712  0.14063512  1
  Cl  Cl145  1  0.61253270  0.39757782  0.34621165  1
  Cl  Cl146  1  0.68234124  0.28637878  0.62606026  1
  Cl  Cl147  1  0.64631876  0.36063997  0.87566422  1
  Cl  Cl148  1  0.35942983  0.66666096  0.12025908  1
  Cl  Cl149  1  0.38185507  0.60949841  0.45406831  1
  Cl  Cl150  1  0.38631986  0.73071973  0.61700180  1
  Cl  Cl151  1  0.32811576  0.64803782  0.90529422  1
  Cl  Cl152  1  0.16710552  0.85497496  0.14518081  1
  Cl  Cl153  1  0.11586946  0.86701388  0.34580380  1
  Cl  Cl154  1  0.14618563  0.88027163  0.63932799  1
  Cl  Cl155  1  0.12337249  0.80286544  0.88390502  1
  Cl  Cl156  1  0.62317782  0.95198964  0.18776173  1
  Cl  Cl157  1  0.61488749  0.90902846  0.35126566  1
  Cl  Cl158  1  0.60444932  0.84177541  0.68650438  1
  Cl  Cl159  1  0.65666325  0.81494143  0.85824206  1
