# generated using pymatgen
data_KGaF3
_symmetry_space_group_name_H-M   'P 1'
_cell_length_a   12.09351576
_cell_length_b   12.09351576
_cell_length_c   17.10281500
_cell_angle_alpha   90.00000000
_cell_angle_beta   90.00000000
_cell_angle_gamma   90.00000000
_symmetry_Int_Tables_number   1
_chemical_formula_structural   KGaF3
_chemical_formula_sum   'K32 Ga32 F96'
_cell_volume   2501.34011199
_cell_formula_units_Z   32
loop_
 _symmetry_equiv_pos_site_id
 _symmetry_equiv_pos_as_xyz
  1  'x, y, z'
loop_
 _atom_site_type_symbol
 _atom_site_label
 _atom_site_symmetry_multiplicity
 _atom_site_fract_x
 _atom_site_fract_y
 _atom_site_fract_z
 _atom_site_occupancy
  K  K0  1  0.99320156  0.99097405  0.99417076  1
  K  K1  1  0.00644507  0.02917654  0.24783593  1
  K  K2  1  0.01715847  0.97497248  0.51938608  1
  K  K3  1  0.96761715  0.96548000  0.75544738  1
  K  K4  1  0.50026829  0.00772104  0.01761588  1
  K  K5  1  0.46973416  0.00134118  0.24543003  1
  K  K6  1  0.47284542  0.98775282  0.48702470  1
  K  K7  1  0.52025325  0.00747758  0.74797202  1
  K  K8  1  0.27532649  0.23794512  0.02060669  1
  K  K9  1  0.25617135  0.25083224  0.23633556  1
  K  K10  1  0.23516104  0.25737562  0.47791022  1
  K  K11  1  0.25645329  0.28919457  0.73939557  1
  K  K12  1  0.01862321  0.49094018  0.99363084  1
  K  K13  1  0.02454585  0.49647879  0.25506071  1
  K  K14  1  0.02718015  0.52099665  0.49372552  1
  K  K15  1  0.98984703  0.48713386  0.74300009  1
  K  K16  1  0.74984452  0.24979660  0.99917624  1
  K  K17  1  0.74697911  0.24322339  0.24617204  1
  K  K18  1  0.77569599  0.22358789  0.50609400  1
  K  K19  1  0.78477682  0.23427504  0.74870064  1
  K  K20  1  0.49857446  0.48344189  0.01725694  1
  K  K21  1  0.48044145  0.49921948  0.23957557  1
  K  K22  1  0.47702358  0.53261069  0.51167202  1
  K  K23  1  0.50766454  0.52014865  0.74608272  1
  K  K24  1  0.24581967  0.75393255  0.01470234  1
  K  K25  1  0.26144295  0.75242222  0.26258698  1
  K  K26  1  0.23917107  0.76954899  0.47522556  1
  K  K27  1  0.22892686  0.74586875  0.75619874  1
  K  K28  1  0.71803640  0.72712184  0.98801122  1
  K  K29  1  0.71901179  0.73721433  0.24308421  1
  K  K30  1  0.75542746  0.73719600  0.50642944  1
  K  K31  1  0.74820665  0.73182285  0.74090515  1
  Ga  Ga32  1  0.00305361  0.25342117  0.11528180  1
  Ga  Ga33  1  0.97520678  0.24848639  0.37251075  1
  Ga  Ga34  1  0.02485049  0.23504556  0.62228571  1
  Ga  Ga35  1  0.03269897  0.24136360  0.87571241  1
  Ga  Ga36  1  0.51350321  0.24775392  0.13311351  1
  Ga  Ga37  1  0.53038746  0.24588902  0.38993037  1
  Ga  Ga38  1  0.49822795  0.24391467  0.62019295  1
  Ga  Ga39  1  0.50881426  0.25260926  0.86003745  1
  Ga  Ga40  1  0.23254017  0.51552309  0.12174369  1
  Ga  Ga41  1  0.26579522  0.49233585  0.37406341  1
  Ga  Ga42  1  0.25952478  0.50714232  0.62187449  1
  Ga  Ga43  1  0.26593139  0.49385195  0.88007089  1
  Ga  Ga44  1  0.97909914  0.74634433  0.12713823  1
  Ga  Ga45  1  0.96801539  0.74847675  0.35943337  1
  Ga  Ga46  1  0.00853657  0.73602519  0.62621145  1
  Ga  Ga47  1  0.99147136  0.73880018  0.87961068  1
  Ga  Ga48  1  0.77132332  0.49750014  0.13621545  1
  Ga  Ga49  1  0.75600397  0.48543436  0.38180986  1
  Ga  Ga50  1  0.76060668  0.47877641  0.59919770  1
  Ga  Ga51  1  0.74705508  0.48763517  0.86804748  1
  Ga  Ga52  1  0.49274321  0.75100776  0.12487064  1
  Ga  Ga53  1  0.51329403  0.74542619  0.37567841  1
  Ga  Ga54  1  0.48843203  0.77285106  0.63454317  1
  Ga  Ga55  1  0.48169465  0.76194861  0.87460105  1
  Ga  Ga56  1  0.22637458  0.98405324  0.12216096  1
  Ga  Ga57  1  0.22316008  0.01023595  0.37187305  1
  Ga  Ga58  1  0.26791627  0.01481147  0.64452353  1
  Ga  Ga59  1  0.27019072  0.03145076  0.86502824  1
  Ga  Ga60  1  0.75820226  0.98712255  0.13009023  1
  Ga  Ga61  1  0.74208308  0.98250812  0.37358907  1
  Ga  Ga62  1  0.74263444  0.99117685  0.60213611  1
  Ga  Ga63  1  0.73523889  0.99953014  0.87602339  1
  F  F64  1  0.05307161  0.26819098  0.00719162  1
  F  F65  1  0.96141449  0.24321582  0.22254623  1
  F  F66  1  0.02302356  0.19750810  0.51431196  1
  F  F67  1  0.03967443  0.26356471  0.73178861  1
  F  F68  1  0.52259768  0.25726922  0.96999374  1
  F  F69  1  0.52525037  0.25910888  0.27836746  1
  F  F70  1  0.53871080  0.21951953  0.50735296  1
  F  F71  1  0.48150230  0.24926692  0.74617695  1
  F  F72  1  0.26177533  0.44201584  0.98237667  1
  F  F73  1  0.25374504  0.52285371  0.24916979  1
  F  F74  1  0.23853421  0.56626951  0.50884994  1
  F  F75  1  0.28601363  0.51206999  0.77254295  1
  F  F76  1  0.01033388  0.75450031  0.01494343  1
  F  F77  1  0.94569577  0.73041970  0.24810336  1
  F  F78  1  0.97469367  0.75996763  0.46949596  1
  F  F79  1  0.97151507  0.72602153  0.74736089  1
  F  F80  1  0.71666412  0.48174827  0.97699849  1
  F  F81  1  0.83832581  0.41823275  0.30191232  1
  F  F82  1  0.67535108  0.55219230  0.46383006  1
  F  F83  1  0.76411013  0.48925124  0.75673082  1
  F  F84  1  0.49120956  0.78111639  0.01305385  1
  F  F85  1  0.49115599  0.72534866  0.23686985  1
  F  F86  1  0.44357346  0.77394783  0.52871963  1
  F  F87  1  0.53039993  0.77872524  0.74300825  1
  F  F88  1  0.28724316  0.01264569  0.97345675  1
  F  F89  1  0.24125771  0.99869587  0.25379873  1
  F  F90  1  0.25586557  0.97992041  0.53848232  1
  F  F91  1  0.28750252  0.06622496  0.75149664  1
  F  F92  1  0.72085531  0.02652096  0.98480149  1
  F  F93  1  0.79900105  0.04217021  0.27999407  1
  F  F94  1  0.67797366  0.92777994  0.46764836  1
  F  F95  1  0.73891110  0.98814302  0.76473661  1
  F  F96  1  0.11905338  0.14536006  0.13134377  1
  F  F97  1  0.13451652  0.15743920  0.34819658  1
  F  F98  1  0.17318156  0.14517909  0.62836597  1
  F  F99  1  0.20648013  0.17508911  0.87547116  1
  F  F100  1  0.63816922  0.11933060  0.13606597  1
  F  F101  1  0.63927577  0.12282185  0.38457243  1
  F  F102  1  0.62693558  0.16948433  0.64684084  1
  F  F103  1  0.63503850  0.14968247  0.85281523  1
  F  F104  1  0.35426733  0.39451897  0.13247392  1
  F  F105  1  0.44001529  0.36927078  0.40879608  1
  F  F106  1  0.35954514  0.29901779  0.59834223  1
  F  F107  1  0.38478551  0.35345407  0.86382452  1
  F  F108  1  0.13087858  0.74112202  0.15036143  1
  F  F109  1  0.09145731  0.64995381  0.35953999  1
  F  F110  1  0.12435660  0.60154670  0.65557851  1
  F  F111  1  0.17203279  0.62111985  0.89430026  1
  F  F112  1  0.88944188  0.36348585  0.09297703  1
  F  F113  1  0.84512441  0.42304302  0.46258973  1
  F  F114  1  0.88988908  0.32212055  0.62323371  1
  F  F115  1  0.84336899  0.36425260  0.87449998  1
  F  F116  1  0.60606994  0.64149848  0.11166560  1
  F  F117  1  0.66152379  0.54568093  0.30599866  1
  F  F118  1  0.60198627  0.66380892  0.61900972  1
  F  F119  1  0.64728500  0.60915164  0.85779205  1
  F  F120  1  0.37412166  0.85541021  0.13808662  1
  F  F121  1  0.39269557  0.86249073  0.36644390  1
  F  F122  1  0.36972212  0.88938703  0.66195854  1
  F  F123  1  0.34653456  0.89782146  0.84300783  1
  F  F124  1  0.82399191  0.75276004  0.11219951  1
  F  F125  1  0.83341360  0.84243967  0.36093793  1
  F  F126  1  0.83237557  0.85456602  0.62722596  1
  F  F127  1  0.82495239  0.86842818  0.88742297  1
  F  F128  1  0.89983904  0.14096621  0.08549650  1
  F  F129  1  0.85372754  0.04601797  0.43499997  1
  F  F130  1  0.94316508  0.10422419  0.64404055  1
  F  F131  1  0.85963436  0.09453651  0.87181114  1
  F  F132  1  0.35386846  0.09638887  0.12894947  1
  F  F133  1  0.40896797  0.14524475  0.38608892  1
  F  F134  1  0.41047334  0.09821118  0.62420768  1
  F  F135  1  0.41826596  0.11811208  0.86961559  1
  F  F136  1  0.10965195  0.36337613  0.14508353  1
  F  F137  1  0.07837146  0.37627331  0.38223934  1
  F  F138  1  0.11098215  0.36262861  0.59865799  1
  F  F139  1  0.13558890  0.40387866  0.85690515  1
  F  F140  1  0.96962055  0.58949199  0.12287618  1
  F  F141  1  0.86153644  0.62018074  0.37509073  1
  F  F142  1  0.88711095  0.60355895  0.61017293  1
  F  F143  1  0.87194250  0.59026867  0.88437395  1
  F  F144  1  0.64264312  0.37252743  0.13198084  1
  F  F145  1  0.66226432  0.34174318  0.39283731  1
  F  F146  1  0.55790703  0.38703675  0.62499577  1
  F  F147  1  0.61456523  0.37532299  0.84740590  1
  F  F148  1  0.38777946  0.63385431  0.10980504  1
  F  F149  1  0.37324455  0.62987059  0.37431606  1
  F  F150  1  0.37982802  0.66478646  0.65880534  1
  F  F151  1  0.39622163  0.57744417  0.89967100  1
  F  F152  1  0.97840962  0.90258870  0.13411076  1
  F  F153  1  0.06332073  0.87313320  0.34802534  1
  F  F154  1  0.14901857  0.92588431  0.67579589  1
  F  F155  1  0.12921239  0.96342718  0.86019263  1
  F  F156  1  0.59586567  0.87143209  0.13638810  1
  F  F157  1  0.62995760  0.91294182  0.31570238  1
  F  F158  1  0.58685951  0.89596332  0.61749897  1
  F  F159  1  0.59949080  0.91973460  0.88119038  1
