# generated using pymatgen
data_KGeBr3
_symmetry_space_group_name_H-M   'P 1'
_cell_length_a   15.66690816
_cell_length_b   15.66690816
_cell_length_c   22.15635400
_cell_angle_alpha   90.00000000
_cell_angle_beta   90.00000000
_cell_angle_gamma   90.00000000
_symmetry_Int_Tables_number   1
_chemical_formula_structural   KGeBr3
_chemical_formula_sum   'K32 Ge32 Br96'
_cell_volume   5438.32165208
_cell_formula_units_Z   32
loop_
 _symmetry_equiv_pos_site_id
 _symmetry_equiv_pos_as_xyz
  1  'x, y, z'
loop_
 _atom_site_type_symbol
 _atom_site_label
 _atom_site_symmetry_multiplicity
 _atom_site_fract_x
 _atom_site_fract_y
 _atom_site_fract_z
 _atom_site_occupancy
  Br  Br0  1  0.14858768  0.07952302  0.02720857  1
  Br  Br1  1  0.16034784  0.10796969  0.22440297  1
  Br  Br2  1  0.14039653  0.08936134  0.52302358  1
  Br  Br3  1  0.15943353  0.11603781  0.71692544  1
  Br  Br4  1  0.66029842  0.10532058  0.02716023  1
  Br  Br5  1  0.64899649  0.08762994  0.22436110  1
  Br  Br6  1  0.65620426  0.11396498  0.52744289  1
  Br  Br7  1  0.65129093  0.10688122  0.72276562  1
  Br  Br8  1  0.34155130  0.38528018  0.97373804  1
  Br  Br9  1  0.35915175  0.40936774  0.27700772  1
  Br  Br10  1  0.34076940  0.39338103  0.47223647  1
  Br  Br11  1  0.35533192  0.41782278  0.77613658  1
  Br  Br12  1  0.15886534  0.59904037  0.02676411  1
  Br  Br13  1  0.14931117  0.58515931  0.22572304  1
  Br  Br14  1  0.15443501  0.60732651  0.52948441  1
  Br  Br15  1  0.15108141  0.61489963  0.72542153  1
  Br  Br16  1  0.85598729  0.41128945  0.97129955  1
  Br  Br17  1  0.84379760  0.38830173  0.27644095  1
  Br  Br18  1  0.85055159  0.41773194  0.47331652  1
  Br  Br19  1  0.85063325  0.40803421  0.77427519  1
  Br  Br20  1  0.64705938  0.58731562  0.02600146  1
  Br  Br21  1  0.66277584  0.60572002  0.22485211  1
  Br  Br22  1  0.64008668  0.59580025  0.52690654  1
  Br  Br23  1  0.66367657  0.61292936  0.71924664  1
  Br  Br24  1  0.35752268  0.90353146  0.97762153  1
  Br  Br25  1  0.34003301  0.89559053  0.27813186  1
  Br  Br26  1  0.34986100  0.91243248  0.47532376  1
  Br  Br27  1  0.35049670  0.91408469  0.78143793  1
  Br  Br28  1  0.84217429  0.88797375  0.96996796  1
  Br  Br29  1  0.85950742  0.91151426  0.27361585  1
  Br  Br30  1  0.83935825  0.89382345  0.47111250  1
  Br  Br31  1  0.85770022  0.92123938  0.77318999  1
  Br  Br32  1  0.91257931  0.13382801  0.02667857  1
  Br  Br33  1  0.90241503  0.14326173  0.22059338  1
  Br  Br34  1  0.89502862  0.16200045  0.52475427  1
  Br  Br35  1  0.90859443  0.14966826  0.72289420  1
  Br  Br36  1  0.40327902  0.13493833  0.02893020  1
  Br  Br37  1  0.41250463  0.14519984  0.22316509  1
  Br  Br38  1  0.39704893  0.16625099  0.52262504  1
  Br  Br39  1  0.39466810  0.16645201  0.72137999  1
  Br  Br40  1  0.10210254  0.33542634  0.97556562  1
  Br  Br41  1  0.10511807  0.33529309  0.27475417  1
  Br  Br42  1  0.08761240  0.36090547  0.47445199  1
  Br  Br43  1  0.08978001  0.35913859  0.77822706  1
  Br  Br44  1  0.90231185  0.64115508  0.02654394  1
  Br  Br45  1  0.91414971  0.64069125  0.22231855  1
  Br  Br46  1  0.89528882  0.66600103  0.52356942  1
  Br  Br47  1  0.89701104  0.66804795  0.72275653  1
  Br  Br48  1  0.60301965  0.33223489  0.97899146  1
  Br  Br49  1  0.60493414  0.33942164  0.27725436  1
  Br  Br50  1  0.59784626  0.36583600  0.47231556  1
  Br  Br51  1  0.60698896  0.33852774  0.77853960  1
  Br  Br52  1  0.41086389  0.64174470  0.02909222  1
  Br  Br53  1  0.40549809  0.63938273  0.22499794  1
  Br  Br54  1  0.39334515  0.65831330  0.53074606  1
  Br  Br55  1  0.41157542  0.64544353  0.72738050  1
  Br  Br56  1  0.10496091  0.82618091  0.97351278  1
  Br  Br57  1  0.10278702  0.84256105  0.27437567  1
  Br  Br58  1  0.09552411  0.85871675  0.47228218  1
  Br  Br59  1  0.10859076  0.84664939  0.77730156  1
  Br  Br60  1  0.60380961  0.83722829  0.96983086  1
  Br  Br61  1  0.60510576  0.83474848  0.27024771  1
  Br  Br62  1  0.58604025  0.85400943  0.47217412  1
  Br  Br63  1  0.58824038  0.86267257  0.77541486  1
  Br  Br64  1  0.99245123  0.94341230  0.11895599  1
  Br  Br65  1  0.00382439  0.05833078  0.36719342  1
  Br  Br66  1  0.99196321  0.94787288  0.61698977  1
  Br  Br67  1  0.01211594  0.05532047  0.86725778  1
  Br  Br68  1  0.49389367  0.94561066  0.11641426  1
  Br  Br69  1  0.51257410  0.05106195  0.36433172  1
  Br  Br70  1  0.48800103  0.95211714  0.61444735  1
  Br  Br71  1  0.50838696  0.05374494  0.86829396  1
  Br  Br72  1  0.24194588  0.29749736  0.13249716  1
  Br  Br73  1  0.26526444  0.20002654  0.38165974  1
  Br  Br74  1  0.24015346  0.30898562  0.62909997  1
  Br  Br75  1  0.25707025  0.19902014  0.87951510  1
  Br  Br76  1  0.99526582  0.44898055  0.12874346  1
  Br  Br77  1  0.00808487  0.55012706  0.38011730  1
  Br  Br78  1  0.98939792  0.45073159  0.63407051  1
  Br  Br79  1  0.00774116  0.55970242  0.88108194  1
  Br  Br80  1  0.74455263  0.29683225  0.11689044  1
  Br  Br81  1  0.75760257  0.19955014  0.36988815  1
  Br  Br82  1  0.74307169  0.30201944  0.62067844  1
  Br  Br83  1  0.75871718  0.19090324  0.86857388  1
  Br  Br84  1  0.49232909  0.44763336  0.13543982  1
  Br  Br85  1  0.51185517  0.55720840  0.38411067  1
  Br  Br86  1  0.48847177  0.45222124  0.63502832  1
  Br  Br87  1  0.51239833  0.55024696  0.88622616  1
  Br  Br88  1  0.24279247  0.79836583  0.13628578  1
  Br  Br89  1  0.25998360  0.69359867  0.38736888  1
  Br  Br90  1  0.23977609  0.80454453  0.63591789  1
  Br  Br91  1  0.26228807  0.68971744  0.88380060  1
  Br  Br92  1  0.74276632  0.79502488  0.13058796  1
  Br  Br93  1  0.76239409  0.69985619  0.38141472  1
  Br  Br94  1  0.73943291  0.80774193  0.62854763  1
  Br  Br95  1  0.75793538  0.69904075  0.87753533  1
  Ge  Ge96  1  0.00578948  0.99954120  0.01012321  1
  Ge  Ge97  1  0.99061016  0.01257068  0.25525134  1
  Ge  Ge98  1  0.00772616  0.99110715  0.50500938  1
  Ge  Ge99  1  0.99317151  0.01436976  0.75510148  1
  Ge  Ge100  1  0.48903360  0.99726416  0.00471057  1
  Ge  Ge101  1  0.50589409  0.01436790  0.24958697  1
  Ge  Ge102  1  0.49303395  0.98505681  0.49940574  1
  Ge  Ge103  1  0.49144610  0.99594596  0.75976062  1
  Ge  Ge104  1  0.24433076  0.25226296  0.98955713  1
  Ge  Ge105  1  0.24163552  0.25052200  0.24522899  1
  Ge  Ge106  1  0.26178499  0.25161246  0.49364365  1
  Ge  Ge107  1  0.25353708  0.24907580  0.73772981  1
  Ge  Ge108  1  0.98848114  0.50992553  0.99194174  1
  Ge  Ge109  1  0.00656436  0.50393241  0.23873577  1
  Ge  Ge110  1  0.99399448  0.49714130  0.48976842  1
  Ge  Ge111  1  0.99150564  0.48567292  0.74910123  1
  Ge  Ge112  1  0.73974427  0.24714613  0.00486192  1
  Ge  Ge113  1  0.74572564  0.25475928  0.26013834  1
  Ge  Ge114  1  0.75326133  0.24623935  0.51049143  1
  Ge  Ge115  1  0.73867969  0.23895390  0.75691191  1
  Ge  Ge116  1  0.50558944  0.51250943  0.00095780  1
  Ge  Ge117  1  0.49091617  0.50060894  0.24714226  1
  Ge  Ge118  1  0.50995794  0.50356010  0.49506177  1
  Ge  Ge119  1  0.49128045  0.50203485  0.74651234  1
  Ge  Ge120  1  0.24103779  0.73561697  0.99438599  1
  Ge  Ge121  1  0.24399383  0.76556117  0.25078878  1
  Ge  Ge122  1  0.25292426  0.73437517  0.50118740  1
  Ge  Ge123  1  0.23810572  0.75270699  0.74734017  1
  Ge  Ge124  1  0.74527930  0.75445130  0.98713842  1
  Ge  Ge125  1  0.74216666  0.74955682  0.24351327  1
  Ge  Ge126  1  0.75920759  0.75126934  0.49350864  1
  Ge  Ge127  1  0.75516077  0.74839624  0.73752896  1
  K  K128  1  0.03869475  0.23799169  0.12370639  1
  K  K129  1  0.95940596  0.26556286  0.37697224  1
  K  K130  1  0.03851195  0.24312722  0.61952053  1
  K  K131  1  0.95846286  0.26160643  0.87532250  1
  K  K132  1  0.53972725  0.23839376  0.12376186  1
  K  K133  1  0.46773591  0.26030835  0.37679303  1
  K  K134  1  0.53761586  0.24393801  0.62484970  1
  K  K135  1  0.46174904  0.26212761  0.87332682  1
  K  K136  1  0.28958332  0.50542503  0.12589334  1
  K  K137  1  0.21058653  0.48568263  0.37087763  1
  K  K138  1  0.28647632  0.51800551  0.62937482  1
  K  K139  1  0.20835850  0.48399037  0.87766943  1
  K  K140  1  0.04064240  0.73466159  0.12197203  1
  K  K141  1  0.96366209  0.76142739  0.37368764  1
  K  K142  1  0.03788605  0.74113465  0.62306780  1
  K  K143  1  0.96021657  0.76630567  0.86753864  1
  K  K144  1  0.78961528  0.50614996  0.12453135  1
  K  K145  1  0.71259455  0.49219584  0.36909404  1
  K  K146  1  0.78769850  0.51209362  0.61747119  1
  K  K147  1  0.71319666  0.48894541  0.87438604  1
  K  K148  1  0.53914313  0.73680898  0.12623825  1
  K  K149  1  0.45871534  0.76271843  0.37132812  1
  K  K150  1  0.53730625  0.74363406  0.62413736  1
  K  K151  1  0.46188540  0.75850908  0.87181030  1
  K  K152  1  0.29053591  0.00640003  0.12909598  1
  K  K153  1  0.20850505  0.99549262  0.37531062  1
  K  K154  1  0.28510841  0.01334218  0.62138498  1
  K  K155  1  0.21303761  0.98862173  0.88421295  1
  K  K156  1  0.78847719  0.00435441  0.12522358  1
  K  K157  1  0.71447164  0.98875998  0.36966869  1
  K  K158  1  0.78894872  0.01665873  0.62536965  1
  K  K159  1  0.70997281  0.98495397  0.87480080  1
