# generated using pymatgen
data_KGeCl3
_symmetry_space_group_name_H-M   'P 1'
_cell_length_a   14.88843592
_cell_length_b   14.88843592
_cell_length_c   21.05542800
_cell_angle_alpha   90.00000000
_cell_angle_beta   90.00000000
_cell_angle_gamma   90.00000000
_symmetry_Int_Tables_number   1
_chemical_formula_structural   KGeCl3
_chemical_formula_sum   'K32 Ge32 Cl96'
_cell_volume   4667.26248343
_cell_formula_units_Z   32
loop_
 _symmetry_equiv_pos_site_id
 _symmetry_equiv_pos_as_xyz
  1  'x, y, z'
loop_
 _atom_site_type_symbol
 _atom_site_label
 _atom_site_symmetry_multiplicity
 _atom_site_fract_x
 _atom_site_fract_y
 _atom_site_fract_z
 _atom_site_occupancy
  Cl  Cl0  1  0.03346010  0.26149955  0.01386695  1
  Cl  Cl1  1  0.93487283  0.25277517  0.26451637  1
  Cl  Cl2  1  0.05570631  0.25066588  0.51022128  1
  Cl  Cl3  1  0.93894888  0.23181174  0.75755853  1
  Cl  Cl4  1  0.54593008  0.26962141  0.98880400  1
  Cl  Cl5  1  0.49361227  0.19677397  0.23677022  1
  Cl  Cl6  1  0.50551835  0.29784997  0.48789650  1
  Cl  Cl7  1  0.46986790  0.22330348  0.73893131  1
  Cl  Cl8  1  0.20973949  0.46763847  0.99038661  1
  Cl  Cl9  1  0.25591012  0.56321593  0.23628150  1
  Cl  Cl10  1  0.25717912  0.43810484  0.47914962  1
  Cl  Cl11  1  0.27282271  0.51991250  0.73535348  1
  Cl  Cl12  1  0.97508346  0.77991265  0.01390097  1
  Cl  Cl13  1  0.00812814  0.69673079  0.26598035  1
  Cl  Cl14  1  0.01302599  0.80381447  0.51169998  1
  Cl  Cl15  1  0.00053171  0.72741490  0.76159460  1
  Cl  Cl16  1  0.70608898  0.53915687  0.01025835  1
  Cl  Cl17  1  0.79436374  0.49788211  0.26158318  1
  Cl  Cl18  1  0.70338942  0.50324986  0.51335070  1
  Cl  Cl19  1  0.80705634  0.46953234  0.75992520  1
  Cl  Cl20  1  0.53675161  0.76131303  0.01463004  1
  Cl  Cl21  1  0.43583605  0.75569224  0.26470621  1
  Cl  Cl22  1  0.55827539  0.75014798  0.51142320  1
  Cl  Cl23  1  0.43907675  0.73591914  0.75958428  1
  Cl  Cl24  1  0.20333072  0.03586817  0.00878233  1
  Cl  Cl25  1  0.29773903  0.00240661  0.25951107  1
  Cl  Cl26  1  0.20394394  0.00506051  0.51152915  1
  Cl  Cl27  1  0.30325419  0.97141693  0.76064871  1
  Cl  Cl28  1  0.71859396  0.96735374  0.99149124  1
  Cl  Cl29  1  0.75701344  0.05920855  0.23998563  1
  Cl  Cl30  1  0.75486500  0.93556050  0.48228503  1
  Cl  Cl31  1  0.77038543  0.01741910  0.73717681  1
  Cl  Cl32  1  0.13232807  0.17692528  0.15498359  1
  Cl  Cl33  1  0.08425517  0.10943673  0.35152361  1
  Cl  Cl34  1  0.17565233  0.13701427  0.65051994  1
  Cl  Cl35  1  0.12519085  0.15232348  0.84052569  1
  Cl  Cl36  1  0.65895142  0.14377448  0.10651347  1
  Cl  Cl37  1  0.58863092  0.10923999  0.40415973  1
  Cl  Cl38  1  0.63952805  0.15806617  0.62038560  1
  Cl  Cl39  1  0.65606200  0.16095558  0.86025154  1
  Cl  Cl40  1  0.35405465  0.33688216  0.13417690  1
  Cl  Cl41  1  0.39468588  0.41027971  0.34087764  1
  Cl  Cl42  1  0.33463505  0.35093276  0.63013460  1
  Cl  Cl43  1  0.33143560  0.33597161  0.88582790  1
  Cl  Cl44  1  0.16088396  0.65039620  0.09963225  1
  Cl  Cl45  1  0.09473342  0.60937424  0.40968744  1
  Cl  Cl46  1  0.15069276  0.66856578  0.61317880  1
  Cl  Cl47  1  0.16551531  0.66513701  0.87453884  1
  Cl  Cl48  1  0.81879143  0.36690437  0.09668342  1
  Cl  Cl49  1  0.89599707  0.41438303  0.40353857  1
  Cl  Cl50  1  0.86599060  0.32671278  0.59628993  1
  Cl  Cl51  1  0.84130661  0.36908457  0.90799502  1
  Cl  Cl52  1  0.63344310  0.67906972  0.15673522  1
  Cl  Cl53  1  0.58597995  0.61108526  0.35113163  1
  Cl  Cl54  1  0.67204535  0.63207589  0.65393751  1
  Cl  Cl55  1  0.62363048  0.65449482  0.84428811  1
  Cl  Cl56  1  0.32130469  0.86782818  0.09731950  1
  Cl  Cl57  1  0.39392057  0.91532780  0.40309957  1
  Cl  Cl58  1  0.36966062  0.83174284  0.59393793  1
  Cl  Cl59  1  0.34355133  0.87258689  0.90848045  1
  Cl  Cl60  1  0.85242400  0.83701340  0.14998301  1
  Cl  Cl61  1  0.89526488  0.90810244  0.34595819  1
  Cl  Cl62  1  0.83805413  0.84711045  0.63707345  1
  Cl  Cl63  1  0.83311336  0.83893724  0.87657472  1
  Cl  Cl64  1  0.88698430  0.08898188  0.09900227  1
  Cl  Cl65  1  0.86593045  0.15262667  0.41181885  1
  Cl  Cl66  1  0.91272905  0.06617821  0.60794022  1
  Cl  Cl67  1  0.88816135  0.07232949  0.89721345  1
  Cl  Cl68  1  0.40006646  0.11637233  0.08842761  1
  Cl  Cl69  1  0.35729680  0.16901126  0.39086482  1
  Cl  Cl70  1  0.39563939  0.08791882  0.59447027  1
  Cl  Cl71  1  0.43254728  0.10475380  0.89246405  1
  Cl  Cl72  1  0.07037086  0.40879834  0.14382032  1
  Cl  Cl73  1  0.15718871  0.36497597  0.33558481  1
  Cl  Cl74  1  0.08850811  0.38563780  0.64613553  1
  Cl  Cl75  1  0.08619874  0.38098931  0.83918767  1
  Cl  Cl76  1  0.90224958  0.61102778  0.11227933  1
  Cl  Cl77  1  0.86074365  0.66215106  0.39629108  1
  Cl  Cl78  1  0.89502466  0.58501242  0.60144247  1
  Cl  Cl79  1  0.94164207  0.59186927  0.88938122  1
  Cl  Cl80  1  0.59655861  0.41963082  0.14325718  1
  Cl  Cl81  1  0.67687803  0.34792554  0.36029114  1
  Cl  Cl82  1  0.59459488  0.38535831  0.65687981  1
  Cl  Cl83  1  0.62024341  0.41164389  0.85065498  1
  Cl  Cl84  1  0.38937049  0.58730474  0.09708498  1
  Cl  Cl85  1  0.36704786  0.65378832  0.40996552  1
  Cl  Cl86  1  0.41262411  0.56891358  0.60522548  1
  Cl  Cl87  1  0.39153067  0.56612869  0.89963634  1
  Cl  Cl88  1  0.09911012  0.92167262  0.14198777  1
  Cl  Cl89  1  0.17141877  0.85679768  0.35761695  1
  Cl  Cl90  1  0.09865759  0.89164743  0.65681822  1
  Cl  Cl91  1  0.11790868  0.91064794  0.85795066  1
  Cl  Cl92  1  0.56830970  0.91180047  0.14294511  1
  Cl  Cl93  1  0.65878800  0.86281636  0.33598614  1
  Cl  Cl94  1  0.58896163  0.88587756  0.64863265  1
  Cl  Cl95  1  0.58065941  0.88346236  0.84876661  1
  Ge  Ge96  1  0.00110647  0.26426265  0.12714435  1
  Ge  Ge97  1  0.99079707  0.24120613  0.37333751  1
  Ge  Ge98  1  0.00426392  0.24830503  0.62015420  1
  Ge  Ge99  1  0.99898747  0.24882986  0.86276214  1
  Ge  Ge100  1  0.48820219  0.24118264  0.12438482  1
  Ge  Ge101  1  0.50083164  0.24420635  0.37927111  1
  Ge  Ge102  1  0.50473506  0.25483438  0.62855668  1
  Ge  Ge103  1  0.51592799  0.24247737  0.87702184  1
  Ge  Ge104  1  0.24498928  0.51722375  0.12617166  1
  Ge  Ge105  1  0.25527698  0.48668996  0.36932807  1
  Ge  Ge106  1  0.26924723  0.49831655  0.62177685  1
  Ge  Ge107  1  0.25362754  0.47974065  0.88090834  1
  Ge  Ge108  1  0.98580142  0.74871515  0.12556908  1
  Ge  Ge109  1  0.00325316  0.73715997  0.37835687  1
  Ge  Ge110  1  0.01537484  0.76149268  0.62368330  1
  Ge  Ge111  1  0.01695123  0.73332790  0.87620929  1
  Ge  Ge112  1  0.73568448  0.50342904  0.12056210  1
  Ge  Ge113  1  0.75794609  0.48861159  0.37444148  1
  Ge  Ge114  1  0.75693864  0.49988729  0.62338661  1
  Ge  Ge115  1  0.75728751  0.49483407  0.86824564  1
  Ge  Ge116  1  0.50241612  0.76634100  0.12784659  1
  Ge  Ge117  1  0.49213816  0.74307940  0.37307517  1
  Ge  Ge118  1  0.50304083  0.74951920  0.61997691  1
  Ge  Ge119  1  0.49522041  0.74735455  0.86638626  1
  Ge  Ge120  1  0.23827184  0.00472947  0.11885385  1
  Ge  Ge121  1  0.25839150  0.99417289  0.37164636  1
  Ge  Ge122  1  0.25864434  0.00388970  0.62120754  1
  Ge  Ge123  1  0.25539073  0.99679622  0.86969408  1
  Ge  Ge124  1  0.74704243  0.01265751  0.12959106  1
  Ge  Ge125  1  0.75612092  0.98395935  0.37142460  1
  Ge  Ge126  1  0.77041761  0.99328669  0.62363596  1
  Ge  Ge127  1  0.75430440  0.98067483  0.87939706  1
  K  K128  1  0.00614702  0.98280733  0.99961426  1
  K  K129  1  0.97516119  0.03587584  0.23476206  1
  K  K130  1  0.99467321  0.00816757  0.47514955  1
  K  K131  1  0.99456993  0.02026196  0.75399394  1
  K  K132  1  0.49916722  0.97388664  0.99937580  1
  K  K133  1  0.50889554  0.98887648  0.27693493  1
  K  K134  1  0.53187107  0.97111243  0.51383014  1
  K  K135  1  0.50946249  0.02144656  0.74997498  1
  K  K136  1  0.24818682  0.24678577  0.01420954  1
  K  K137  1  0.27880706  0.23305001  0.25752540  1
  K  K138  1  0.26594168  0.22674416  0.51751087  1
  K  K139  1  0.24391302  0.27799309  0.75321864  1
  K  K140  1  0.98747282  0.47457431  0.00821144  1
  K  K141  1  0.00497776  0.48519990  0.27548551  1
  K  K142  1  0.02958856  0.47120619  0.51409300  1
  K  K143  1  0.00786297  0.52118904  0.74429709  1
  K  K144  1  0.76533851  0.21244154  0.98941078  1
  K  K145  1  0.72633164  0.27272053  0.22418737  1
  K  K146  1  0.72376945  0.26032478  0.49448146  1
  K  K147  1  0.73173542  0.26683158  0.74009776  1
  K  K148  1  0.50964068  0.47360050  0.00166264  1
  K  K149  1  0.47581812  0.54086039  0.23385571  1
  K  K150  1  0.49329151  0.50796633  0.47319531  1
  K  K151  1  0.49965529  0.52698645  0.74909712  1
  K  K152  1  0.29073580  0.71153763  0.99258797  1
  K  K153  1  0.22483506  0.77540585  0.22337244  1
  K  K154  1  0.22933881  0.77059800  0.48955143  1
  K  K155  1  0.22837244  0.76695070  0.74621227  1
  K  K156  1  0.75685575  0.75062733  0.01747487  1
  K  K157  1  0.77844771  0.72114118  0.26404973  1
  K  K158  1  0.76854748  0.72553828  0.52233373  1
  K  K159  1  0.72629795  0.78426452  0.75290022  1
