# generated using pymatgen
data_KGeF3
_symmetry_space_group_name_H-M   'P 1'
_cell_length_a   12.57226382
_cell_length_b   12.57226382
_cell_length_c   17.77986700
_cell_angle_alpha   90.00000000
_cell_angle_beta   90.00000000
_cell_angle_gamma   90.00000000
_symmetry_Int_Tables_number   1
_chemical_formula_structural   KGeF3
_chemical_formula_sum   'K32 Ge32 F96'
_cell_volume   2810.31809273
_cell_formula_units_Z   32
loop_
 _symmetry_equiv_pos_site_id
 _symmetry_equiv_pos_as_xyz
  1  'x, y, z'
loop_
 _atom_site_type_symbol
 _atom_site_label
 _atom_site_symmetry_multiplicity
 _atom_site_fract_x
 _atom_site_fract_y
 _atom_site_fract_z
 _atom_site_occupancy
  F  F0  1  0.03754119  0.17843050  0.03518976  1
  F  F1  1  0.96927258  0.28404507  0.27907522  1
  F  F2  1  0.98291960  0.24549484  0.53246000  1
  F  F3  1  0.02521858  0.32753908  0.78482067  1
  F  F4  1  0.45556839  0.25345268  0.97326615  1
  F  F5  1  0.55547053  0.22083961  0.21531080  1
  F  F6  1  0.45764132  0.25140548  0.46914028  1
  F  F7  1  0.54332241  0.25818689  0.72423510  1
  F  F8  1  0.31175587  0.45736093  0.03060817  1
  F  F9  1  0.19585428  0.46011939  0.27060741  1
  F  F10  1  0.26473093  0.49286540  0.52947768  1
  F  F11  1  0.19944599  0.52219928  0.78572201  1
  F  F12  1  0.96895728  0.76164594  0.98501589  1
  F  F13  1  0.09079162  0.68974291  0.22461827  1
  F  F14  1  0.00045932  0.72617109  0.46644630  1
  F  F15  1  0.02835943  0.77785873  0.71907658  1
  F  F16  1  0.80766503  0.56049090  0.03677008  1
  F  F17  1  0.70462620  0.43434793  0.28300014  1
  F  F18  1  0.79327366  0.56334198  0.52374108  1
  F  F19  1  0.72873824  0.46499013  0.78074077  1
  F  F20  1  0.47906380  0.67130594  0.95268907  1
  F  F21  1  0.51255180  0.76938359  0.20679718  1
  F  F22  1  0.45963740  0.66982047  0.46887983  1
  F  F23  1  0.55059189  0.80297546  0.72080565  1
  F  F24  1  0.16547478  0.98887046  0.96744757  1
  F  F25  1  0.28390506  0.94057254  0.21887011  1
  F  F26  1  0.18645731  0.10318626  0.44850358  1
  F  F27  1  0.34358880  0.90163354  0.69317962  1
  F  F28  1  0.77931222  0.03006305  0.03502174  1
  F  F29  1  0.65250632  0.95583647  0.28495263  1
  F  F30  1  0.80767941  0.03470565  0.51952653  1
  F  F31  1  0.74539208  0.97273019  0.78052453  1
  F  F32  1  0.10011422  0.00098449  0.14789912  1
  F  F33  1  0.14224046  0.10535171  0.30002136  1
  F  F34  1  0.13263191  0.21032176  0.63874550  1
  F  F35  1  0.11135836  0.14838162  0.83609752  1
  F  F36  1  0.59280822  0.14964547  0.07522391  1
  F  F37  1  0.61958618  0.18088522  0.38544104  1
  F  F38  1  0.70495630  0.13610237  0.63421447  1
  F  F39  1  0.55385414  0.10460217  0.87359070  1
  F  F40  1  0.36737516  0.40750360  0.17473918  1
  F  F41  1  0.31864989  0.37616339  0.38103961  1
  F  F42  1  0.38138899  0.32026560  0.63016478  1
  F  F43  1  0.37305900  0.43189647  0.85243433  1
  F  F44  1  0.05239411  0.59931687  0.09478747  1
  F  F45  1  0.17153554  0.72664506  0.37111684  1
  F  F46  1  0.20987429  0.64167181  0.63159231  1
  F  F47  1  0.05028264  0.59894163  0.89718164  1
  F  F48  1  0.92687052  0.32622398  0.10990135  1
  F  F49  1  0.87095775  0.33255734  0.40518279  1
  F  F50  1  0.81568303  0.39989807  0.62003124  1
  F  F51  1  0.84506464  0.39665049  0.89996366  1
  F  F52  1  0.66153040  0.59173211  0.14959137  1
  F  F53  1  0.65302112  0.61807242  0.35347635  1
  F  F54  1  0.65607576  0.73626062  0.60366685  1
  F  F55  1  0.61088782  0.64693393  0.83039780  1
  F  F56  1  0.41138134  0.84095900  0.08241563  1
  F  F57  1  0.38807671  0.85885563  0.42129050  1
  F  F58  1  0.31073442  0.03759610  0.57579290  1
  F  F59  1  0.34304986  0.88650978  0.91497860  1
  F  F60  1  0.82240251  0.89479147  0.14820070  1
  F  F61  1  0.81560414  0.87450861  0.36230267  1
  F  F62  1  0.90793701  0.84227808  0.59975680  1
  F  F63  1  0.89198458  0.94250917  0.89162254  1
  F  F64  1  0.90510932  0.12351799  0.15467731  1
  F  F65  1  0.81956371  0.08330929  0.32998359  1
  F  F66  1  0.90791342  0.06272956  0.65023836  1
  F  F67  1  0.89686201  0.16354769  0.82548113  1
  F  F68  1  0.38544912  0.16524592  0.12931594  1
  F  F69  1  0.41325113  0.14544643  0.34050494  1
  F  F70  1  0.34477305  0.11181886  0.71738350  1
  F  F71  1  0.32437272  0.09800914  0.90833509  1
  F  F72  1  0.16508321  0.37605193  0.11886026  1
  F  F73  1  0.08954502  0.34219808  0.40153046  1
  F  F74  1  0.05475637  0.41036862  0.62160457  1
  F  F75  1  0.17741537  0.38374694  0.90387545  1
  F  F76  1  0.88562448  0.65680586  0.18580319  1
  F  F77  1  0.00493881  0.58380464  0.35705687  1
  F  F78  1  0.84166561  0.60669277  0.66773480  1
  F  F79  1  0.83176221  0.61077629  0.86200244  1
  F  F80  1  0.67875455  0.39852004  0.07757538  1
  F  F81  1  0.65177805  0.42661139  0.42964140  1
  F  F82  1  0.58785890  0.34257032  0.59201175  1
  F  F83  1  0.60896486  0.31320298  0.87990491  1
  F  F84  1  0.42349186  0.62846820  0.11578050  1
  F  F85  1  0.35511978  0.57698767  0.32957880  1
  F  F86  1  0.40708359  0.55730653  0.63554247  1
  F  F87  1  0.39956066  0.65949822  0.81282234  1
  F  F88  1  0.19390363  0.82039802  0.10999858  1
  F  F89  1  0.08068386  0.94173858  0.38741712  1
  F  F90  1  0.12134156  0.84833951  0.58942382  1
  F  F91  1  0.13803319  0.79027676  0.88613579  1
  F  F92  1  0.61888416  0.92516099  0.10550178  1
  F  F93  1  0.59700898  0.83144854  0.44149405  1
  F  F94  1  0.55401363  0.93177919  0.59892303  1
  F  F95  1  0.68431136  0.88540703  0.91318151  1
  Ge  Ge96  1  0.02493587  0.21546772  0.13947758  1
  Ge  Ge97  1  0.98568726  0.23542252  0.38181326  1
  Ge  Ge98  1  0.99246133  0.27217697  0.63863408  1
  Ge  Ge99  1  0.00648901  0.24509105  0.87315115  1
  Ge  Ge100  1  0.50478104  0.26065833  0.11678580  1
  Ge  Ge101  1  0.49848653  0.26797117  0.36491490  1
  Ge  Ge102  1  0.50101733  0.22714125  0.62271216  1
  Ge  Ge103  1  0.47668754  0.23685563  0.86628271  1
  Ge  Ge104  1  0.26054716  0.49509220  0.12921933  1
  Ge  Ge105  1  0.23335752  0.50260754  0.37055104  1
  Ge  Ge106  1  0.26581283  0.50006608  0.63731999  1
  Ge  Ge107  1  0.25335497  0.51395854  0.88572774  1
  Ge  Ge108  1  0.00716852  0.72833731  0.13957936  1
  Ge  Ge109  1  0.02159343  0.73504565  0.35865416  1
  Ge  Ge110  1  0.01906199  0.74005076  0.61282013  1
  Ge  Ge111  1  0.99378877  0.73839172  0.88090517  1
  Ge  Ge112  1  0.77426101  0.49356211  0.12999214  1
  Ge  Ge113  1  0.75325838  0.50385368  0.37334783  1
  Ge  Ge114  1  0.73290406  0.52714741  0.61876372  1
  Ge  Ge115  1  0.73319694  0.50128161  0.88518293  1
  Ge  Ge116  1  0.52381238  0.74243655  0.10141874  1
  Ge  Ge117  1  0.49152602  0.75768833  0.38593305  1
  Ge  Ge118  1  0.51409265  0.78696418  0.61637399  1
  Ge  Ge119  1  0.50368513  0.74788098  0.85941052  1
  Ge  Ge120  1  0.24049678  0.96478907  0.11702921  1
  Ge  Ge121  1  0.21418081  0.01043356  0.36660494  1
  Ge  Ge122  1  0.24874692  0.01544672  0.66977502  1
  Ge  Ge123  1  0.23867655  0.98232248  0.87562704  1
  Ge  Ge124  1  0.73135687  0.01889745  0.13719008  1
  Ge  Ge125  1  0.71914637  0.99247001  0.37936185  1
  Ge  Ge126  1  0.77432920  0.99985184  0.62206501  1
  Ge  Ge127  1  0.75672377  0.01295166  0.88468358  1
  K  K128  1  0.98093464  0.97117231  0.02811047  1
  K  K129  1  0.96861998  0.97663634  0.26207271  1
  K  K130  1  0.02282788  0.01825976  0.52287861  1
  K  K131  1  0.00025253  0.98757531  0.76608431  1
  K  K132  1  0.48906358  0.00021847  0.99344263  1
  K  K133  1  0.47770251  0.01325401  0.22579517  1
  K  K134  1  0.47210773  0.03044744  0.48081610  1
  K  K135  1  0.52985283  0.00854899  0.74065435  1
  K  K136  1  0.24714175  0.23820778  0.00783001  1
  K  K137  1  0.25950248  0.25977397  0.25237317  1
  K  K138  1  0.23959722  0.27433623  0.51133148  1
  K  K139  1  0.24309327  0.28736116  0.75901872  1
  K  K140  1  0.00056726  0.45714677  0.99800712  1
  K  K141  1  0.00177673  0.47960735  0.23044244  1
  K  K142  1  0.99001089  0.49051886  0.49065502  1
  K  K143  1  0.98497929  0.52202565  0.75507377  1
  K  K144  1  0.75290333  0.24162611  0.99189265  1
  K  K145  1  0.76117659  0.24274609  0.25008098  1
  K  K146  1  0.74537474  0.25326801  0.50746698  1
  K  K147  1  0.75502498  0.26637529  0.74452542  1
  K  K148  1  0.51079890  0.47289061  0.99528724  1
  K  K149  1  0.51595767  0.51921266  0.24872121  1
  K  K150  1  0.47766826  0.47306937  0.50351516  1
  K  K151  1  0.51710685  0.48599578  0.74861449  1
  K  K152  1  0.27270008  0.72410335  0.99662222  1
  K  K153  1  0.29242568  0.73503545  0.23979545  1
  K  K154  1  0.26089350  0.74102957  0.50511599  1
  K  K155  1  0.23626942  0.74679165  0.75460477  1
  K  K156  1  0.76374567  0.76553635  0.01919744  1
  K  K157  1  0.72267572  0.75990218  0.25000338  1
  K  K158  1  0.78448212  0.76673203  0.49011224  1
  K  K159  1  0.75758158  0.76056563  0.75019002  1
