# generated using pymatgen
data_KGeI3
_symmetry_space_group_name_H-M   'P 1'
_cell_length_a   16.78405344
_cell_length_b   16.78405344
_cell_length_c   23.73623700
_cell_angle_alpha   90.00000000
_cell_angle_beta   90.00000000
_cell_angle_gamma   90.00000000
_symmetry_Int_Tables_number   1
_chemical_formula_structural   KGeI3
_chemical_formula_sum   'K32 Ge32 I96'
_cell_volume   6686.60358260
_cell_formula_units_Z   32
loop_
 _symmetry_equiv_pos_site_id
 _symmetry_equiv_pos_as_xyz
  1  'x, y, z'
loop_
 _atom_site_type_symbol
 _atom_site_label
 _atom_site_symmetry_multiplicity
 _atom_site_fract_x
 _atom_site_fract_y
 _atom_site_fract_z
 _atom_site_occupancy
  Ge  Ge0  1  0.01058907  0.99755865  0.00780784  1
  Ge  Ge1  1  0.01258362  0.01496151  0.25464310  1
  Ge  Ge2  1  0.98386833  0.98160630  0.50733627  1
  Ge  Ge3  1  0.02057183  0.01007926  0.74865269  1
  Ge  Ge4  1  0.51320918  0.00130718  0.98567001  1
  Ge  Ge5  1  0.51659309  0.99789021  0.24460181  1
  Ge  Ge6  1  0.47527742  0.99801881  0.49543972  1
  Ge  Ge7  1  0.48873879  0.99959316  0.74164722  1
  Ge  Ge8  1  0.25411444  0.26922157  0.00540855  1
  Ge  Ge9  1  0.26071388  0.25231640  0.26132371  1
  Ge  Ge10  1  0.23666042  0.23701580  0.51455478  1
  Ge  Ge11  1  0.25159229  0.26393028  0.75556118  1
  Ge  Ge12  1  0.01664293  0.50497219  0.98767625  1
  Ge  Ge13  1  0.01315966  0.49988580  0.24625012  1
  Ge  Ge14  1  0.97490538  0.49899077  0.49756846  1
  Ge  Ge15  1  0.98929873  0.49997644  0.74439080  1
  Ge  Ge16  1  0.77242811  0.25060973  0.00801691  1
  Ge  Ge17  1  0.74238993  0.27060507  0.25537157  1
  Ge  Ge18  1  0.74655314  0.23078180  0.50068059  1
  Ge  Ge19  1  0.74643644  0.24659713  0.76225441  1
  Ge  Ge20  1  0.50898402  0.49545395  0.01130192  1
  Ge  Ge21  1  0.51304261  0.51331824  0.25576303  1
  Ge  Ge22  1  0.48471962  0.48034134  0.50684236  1
  Ge  Ge23  1  0.51989895  0.50869713  0.74999562  1
  Ge  Ge24  1  0.26970848  0.74867022  0.00711910  1
  Ge  Ge25  1  0.24154554  0.76902513  0.25460996  1
  Ge  Ge26  1  0.24758087  0.73032388  0.50180392  1
  Ge  Ge27  1  0.24772860  0.74712006  0.76189930  1
  Ge  Ge28  1  0.74183988  0.76284368  0.99220949  1
  Ge  Ge29  1  0.77295629  0.75710116  0.25236053  1
  Ge  Ge30  1  0.72513939  0.73798322  0.50474094  1
  Ge  Ge31  1  0.76446998  0.76633356  0.74246360  1
  I  I32  1  0.14509455  0.09548801  0.02435578  1
  I  I33  1  0.14134832  0.10867729  0.21798888  1
  I  I34  1  0.14635941  0.09926227  0.53049211  1
  I  I35  1  0.09532318  0.15484145  0.72044653  1
  I  I36  1  0.65131933  0.09230106  0.97192082  1
  I  I37  1  0.65169744  0.08713440  0.26695056  1
  I  I38  1  0.64982318  0.09997422  0.47352675  1
  I  I39  1  0.60351648  0.16235395  0.78039049  1
  I  I40  1  0.34980482  0.39661491  0.97204663  1
  I  I41  1  0.34655938  0.39436638  0.27751409  1
  I  I42  1  0.35066233  0.39236589  0.47316042  1
  I  I43  1  0.39390203  0.35055369  0.77551602  1
  I  I44  1  0.14480263  0.60456869  0.96373422  1
  I  I45  1  0.15075937  0.58662355  0.26967041  1
  I  I46  1  0.14937958  0.59975744  0.47744334  1
  I  I47  1  0.10403082  0.66329195  0.77866228  1
  I  I48  1  0.85887294  0.38881771  0.03133748  1
  I  I49  1  0.83351188  0.40658267  0.23515569  1
  I  I50  1  0.84014980  0.40887118  0.52277664  1
  I  I51  1  0.90301493  0.36168012  0.71897639  1
  I  I52  1  0.64359518  0.59520684  0.02837010  1
  I  I53  1  0.63974582  0.60983611  0.22214306  1
  I  I54  1  0.64215575  0.60021438  0.53380476  1
  I  I55  1  0.59666090  0.65351061  0.72660354  1
  I  I56  1  0.35389726  0.89008547  0.02848870  1
  I  I57  1  0.33671000  0.90127867  0.23153209  1
  I  I58  1  0.34025837  0.90862659  0.52054528  1
  I  I59  1  0.40488432  0.86024219  0.71612528  1
  I  I60  1  0.84109113  0.89552910  0.97140143  1
  I  I61  1  0.85408026  0.89619892  0.27980415  1
  I  I62  1  0.84862807  0.89547775  0.47314171  1
  I  I63  1  0.89819831  0.85395006  0.77781034  1
  I  I64  1  0.90965827  0.15972126  0.98431733  1
  I  I65  1  0.90049174  0.14152524  0.25624507  1
  I  I66  1  0.89262143  0.15461923  0.47969059  1
  I  I67  1  0.84616475  0.11294692  0.77503155  1
  I  I68  1  0.40551858  0.13499907  0.97444865  1
  I  I69  1  0.39066580  0.14954219  0.27655576  1
  I  I70  1  0.39455516  0.13852368  0.46902449  1
  I  I71  1  0.35424445  0.09079281  0.77172246  1
  I  I72  1  0.12042341  0.35776530  0.03656424  1
  I  I73  1  0.09087863  0.35246174  0.22938152  1
  I  I74  1  0.10626232  0.34412426  0.52887093  1
  I  I75  1  0.16131026  0.40081089  0.72904173  1
  I  I76  1  0.89929825  0.63207268  0.98328372  1
  I  I77  1  0.89378799  0.65012958  0.28271124  1
  I  I78  1  0.89486137  0.63982746  0.47343548  1
  I  I79  1  0.85559218  0.59320453  0.77567091  1
  I  I80  1  0.60244527  0.35381040  0.01101902  1
  I  I81  1  0.59202304  0.33767562  0.23750109  1
  I  I82  1  0.58121290  0.34434852  0.51753249  1
  I  I83  1  0.64619113  0.40963625  0.71881537  1
  I  I84  1  0.40827786  0.65859643  0.98599163  1
  I  I85  1  0.39642417  0.63710836  0.25650390  1
  I  I86  1  0.39266562  0.65375258  0.47990411  1
  I  I87  1  0.34602961  0.61230473  0.77543986  1
  I  I88  1  0.09984040  0.85377693  0.00618788  1
  I  I89  1  0.09245326  0.83862836  0.23694118  1
  I  I90  1  0.08033321  0.84532410  0.51748729  1
  I  I91  1  0.14782476  0.91128592  0.71885309  1
  I  I92  1  0.60863852  0.84674761  0.03076703  1
  I  I93  1  0.59405731  0.85131670  0.23198518  1
  I  I94  1  0.60140676  0.84562901  0.53140023  1
  I  I95  1  0.66591036  0.90023569  0.72432617  1
  I  I96  1  0.95800988  0.98738125  0.11882248  1
  I  I97  1  0.05118645  0.01485079  0.37017109  1
  I  I98  1  0.94005088  0.99414289  0.62080250  1
  I  I99  1  0.05152676  0.01409513  0.86520821  1
  I  I100  1  0.51193031  0.03554028  0.12752562  1
  I  I101  1  0.48471948  0.94871838  0.37976832  1
  I  I102  1  0.50282318  0.05493499  0.62841145  1
  I  I103  1  0.50612360  0.94321465  0.87480692  1
  I  I104  1  0.30674680  0.25861756  0.12054437  1
  I  I105  1  0.20299634  0.23723273  0.37314341  1
  I  I106  1  0.30276883  0.24863319  0.62379707  1
  I  I107  1  0.20223020  0.24994310  0.87128362  1
  I  I108  1  0.00927522  0.54130991  0.13047899  1
  I  I109  1  0.98472780  0.44914246  0.38167773  1
  I  I110  1  0.00308689  0.55320584  0.63067931  1
  I  I111  1  0.00335596  0.44405085  0.87846512  1
  I  I112  1  0.75307622  0.20069702  0.12023848  1
  I  I113  1  0.73808500  0.29781074  0.37206719  1
  I  I114  1  0.74560665  0.20397694  0.61891471  1
  I  I115  1  0.76410472  0.30496726  0.87146880  1
  I  I116  1  0.45709820  0.48689108  0.12211187  1
  I  I117  1  0.54877104  0.51126656  0.37183996  1
  I  I118  1  0.44097135  0.49212483  0.62117392  1
  I  I119  1  0.54910328  0.50648458  0.86721811  1
  I  I120  1  0.24786461  0.69967173  0.11945062  1
  I  I121  1  0.23839380  0.79744572  0.37151123  1
  I  I122  1  0.24879501  0.70239027  0.61963945  1
  I  I123  1  0.26531122  0.80570636  0.87074061  1
  I  I124  1  0.80509068  0.76000428  0.13535373  1
  I  I125  1  0.69543975  0.73473669  0.38603738  1
  I  I126  1  0.81027813  0.75050026  0.62971764  1
  I  I127  1  0.69854377  0.74183607  0.88011355  1
  K  K128  1  0.98614200  0.21913585  0.12362147  1
  K  K129  1  0.99281359  0.24060163  0.36482281  1
  K  K130  1  0.96819431  0.22268626  0.61009160  1
  K  K131  1  0.98752060  0.23215844  0.85010036  1
  K  K132  1  0.51810427  0.24323751  0.11779205  1
  K  K133  1  0.50824935  0.28229399  0.37729753  1
  K  K134  1  0.51639755  0.26855990  0.65181628  1
  K  K135  1  0.51322733  0.27833075  0.88856537  1
  K  K136  1  0.23772432  0.47692367  0.14584240  1
  K  K137  1  0.20152309  0.45327601  0.37852430  1
  K  K138  1  0.22904728  0.48812144  0.59826281  1
  K  K139  1  0.22874876  0.47575529  0.85948645  1
  K  K140  1  0.01642648  0.74934008  0.11660566  1
  K  K141  1  0.00706005  0.78822539  0.37738563  1
  K  K142  1  0.02215584  0.76757428  0.65262847  1
  K  K143  1  0.00617783  0.76398477  0.89055473  1
  K  K144  1  0.79172867  0.54167590  0.12566085  1
  K  K145  1  0.77023036  0.51725183  0.37468566  1
  K  K146  1  0.78134679  0.53238912  0.63963423  1
  K  K147  1  0.75895281  0.51528171  0.90277746  1
  K  K148  1  0.48165043  0.71873453  0.12662639  1
  K  K149  1  0.48842359  0.73987896  0.36315534  1
  K  K150  1  0.47159707  0.71575529  0.61206776  1
  K  K151  1  0.48389854  0.73106812  0.85323412  1
  K  K152  1  0.29324271  0.04072945  0.12435150  1
  K  K153  1  0.27124228  0.01543792  0.37201816  1
  K  K154  1  0.28103003  0.03134995  0.63689117  1
  K  K155  1  0.26137122  0.01766642  0.89976350  1
  K  K156  1  0.73668591  0.98249954  0.10974595  1
  K  K157  1  0.70018746  0.95064969  0.37396360  1
  K  K158  1  0.72914700  0.99168285  0.59472104  1
  K  K159  1  0.72604503  0.97733591  0.85619298  1
