# generated using pymatgen
data_KHgBr3
_symmetry_space_group_name_H-M   'P 1'
_cell_length_a   15.92408714
_cell_length_b   15.92408714
_cell_length_c   22.52005900
_cell_angle_alpha   90.00000000
_cell_angle_beta   90.00000000
_cell_angle_gamma   90.00000000
_symmetry_Int_Tables_number   1
_chemical_formula_structural   KHgBr3
_chemical_formula_sum   'K32 Hg32 Br96'
_cell_volume   5710.55889408
_cell_formula_units_Z   32
loop_
 _symmetry_equiv_pos_site_id
 _symmetry_equiv_pos_as_xyz
  1  'x, y, z'
loop_
 _atom_site_type_symbol
 _atom_site_label
 _atom_site_symmetry_multiplicity
 _atom_site_fract_x
 _atom_site_fract_y
 _atom_site_fract_z
 _atom_site_occupancy
  Br  Br0  1  0.98380303  0.30406396  0.96336522  1
  Br  Br1  1  0.03244045  0.20067656  0.23857174  1
  Br  Br2  1  0.01483656  0.24982553  0.50742824  1
  Br  Br3  1  0.93367136  0.17238863  0.77561168  1
  Br  Br4  1  0.54037518  0.21216823  0.02742471  1
  Br  Br5  1  0.42765038  0.32618315  0.21942873  1
  Br  Br6  1  0.55067652  0.35189654  0.49904596  1
  Br  Br7  1  0.49913277  0.20094645  0.73908115  1
  Br  Br8  1  0.18068537  0.47488870  0.96533403  1
  Br  Br9  1  0.19024877  0.56494070  0.28150117  1
  Br  Br10  1  0.24734470  0.45540215  0.48527671  1
  Br  Br11  1  0.30451849  0.52113501  0.76098135  1
  Br  Br12  1  0.06468762  0.73375274  0.98681848  1
  Br  Br13  1  0.00628648  0.76852173  0.25421154  1
  Br  Br14  1  0.97889997  0.81549466  0.52585491  1
  Br  Br15  1  0.93081539  0.72532114  0.73171831  1
  Br  Br16  1  0.74105163  0.45068583  0.00309175  1
  Br  Br17  1  0.78544666  0.54993017  0.21733944  1
  Br  Br18  1  0.80882184  0.38859195  0.49305079  1
  Br  Br19  1  0.72352873  0.58920770  0.73673203  1
  Br  Br20  1  0.48625948  0.79749678  0.01141492  1
  Br  Br21  1  0.45658256  0.69327881  0.28543910  1
  Br  Br22  1  0.54705089  0.79832919  0.48712194  1
  Br  Br23  1  0.52067700  0.72611739  0.75149592  1
  Br  Br24  1  0.24385257  0.93814764  0.01745393  1
  Br  Br25  1  0.32702436  0.06119326  0.24978675  1
  Br  Br26  1  0.24201693  0.96249608  0.52038214  1
  Br  Br27  1  0.28898605  0.03603123  0.73610986  1
  Br  Br28  1  0.67074376  0.99818200  0.03069897  1
  Br  Br29  1  0.80821789  0.98932447  0.24089767  1
  Br  Br30  1  0.74405977  0.98653407  0.51769373  1
  Br  Br31  1  0.70127518  0.00551163  0.73800846  1
  Br  Br32  1  0.07726874  0.12441356  0.06147502  1
  Br  Br33  1  0.14462318  0.11044488  0.38236737  1
  Br  Br34  1  0.10993236  0.15561133  0.65101638  1
  Br  Br35  1  0.13687691  0.13028357  0.88638985  1
  Br  Br36  1  0.58101596  0.10609074  0.19186910  1
  Br  Br37  1  0.63079180  0.07255573  0.37422579  1
  Br  Br38  1  0.58958375  0.13578791  0.58564594  1
  Br  Br39  1  0.63056467  0.17314822  0.88180731  1
  Br  Br40  1  0.38828870  0.39418869  0.04437612  1
  Br  Br41  1  0.40794723  0.45680563  0.35261511  1
  Br  Br42  1  0.41158963  0.39193222  0.64016032  1
  Br  Br43  1  0.34491468  0.31096378  0.87024313  1
  Br  Br44  1  0.05890317  0.59875157  0.13018788  1
  Br  Br45  1  0.07973443  0.62179904  0.43966035  1
  Br  Br46  1  0.08743127  0.61454533  0.61495454  1
  Br  Br47  1  0.13614268  0.65709131  0.82923223  1
  Br  Br48  1  0.92748370  0.37568975  0.11496515  1
  Br  Br49  1  0.86323016  0.38024659  0.32288456  1
  Br  Br50  1  0.92103558  0.39402380  0.66514857  1
  Br  Br51  1  0.80685144  0.33957015  0.84909167  1
  Br  Br52  1  0.55729396  0.59880709  0.12718526  1
  Br  Br53  1  0.63032030  0.56278516  0.39747212  1
  Br  Br54  1  0.58131918  0.60644596  0.59353588  1
  Br  Br55  1  0.64638897  0.66304143  0.90558345  1
  Br  Br56  1  0.39035541  0.86362493  0.16533773  1
  Br  Br57  1  0.40342309  0.92425759  0.38362816  1
  Br  Br58  1  0.45273697  0.89294095  0.63381795  1
  Br  Br59  1  0.38532761  0.83491038  0.86053918  1
  Br  Br60  1  0.91490616  0.87650062  0.10320329  1
  Br  Br61  1  0.89186799  0.90241981  0.39326880  1
  Br  Br62  1  0.93133578  0.97044334  0.65727500  1
  Br  Br63  1  0.89127475  0.84829212  0.88209400  1
  Br  Br64  1  0.81793213  0.14885373  0.11395905  1
  Br  Br65  1  0.87509057  0.14454109  0.37949485  1
  Br  Br66  1  0.82213006  0.17459958  0.61065026  1
  Br  Br67  1  0.86769607  0.09340953  0.92903015  1
  Br  Br68  1  0.32111573  0.15021586  0.09384735  1
  Br  Br69  1  0.37643754  0.19100956  0.39718933  1
  Br  Br70  1  0.34124363  0.16110522  0.58517650  1
  Br  Br71  1  0.40162068  0.07355078  0.89830110  1
  Br  Br72  1  0.17680300  0.37405245  0.14777767  1
  Br  Br73  1  0.10706001  0.36270267  0.35873315  1
  Br  Br74  1  0.16787731  0.37393365  0.62652876  1
  Br  Br75  1  0.12292057  0.36534454  0.79858423  1
  Br  Br76  1  0.82824186  0.64990267  0.05663741  1
  Br  Br77  1  0.84404383  0.63880593  0.36707488  1
  Br  Br78  1  0.84781226  0.60134423  0.56917259  1
  Br  Br79  1  0.90406629  0.57368754  0.86732119  1
  Br  Br80  1  0.65626588  0.35628324  0.15731216  1
  Br  Br81  1  0.63501124  0.31888544  0.34082850  1
  Br  Br82  1  0.66135185  0.38136594  0.65659885  1
  Br  Br83  1  0.57515660  0.43286004  0.85017974  1
  Br  Br84  1  0.30145482  0.64383183  0.11619661  1
  Br  Br85  1  0.32742273  0.68060401  0.43684311  1
  Br  Br86  1  0.34017568  0.63843465  0.61525663  1
  Br  Br87  1  0.38871587  0.59400111  0.91942522  1
  Br  Br88  1  0.13562166  0.92673567  0.18240502  1
  Br  Br89  1  0.15806762  0.85989782  0.36540242  1
  Br  Br90  1  0.15442726  0.85089815  0.66895139  1
  Br  Br91  1  0.15520447  0.88873274  0.85879782  1
  Br  Br92  1  0.64399290  0.83809845  0.15964300  1
  Br  Br93  1  0.66179701  0.81555682  0.33843772  1
  Br  Br94  1  0.72017282  0.80058905  0.63243317  1
  Br  Br95  1  0.62653069  0.90955570  0.87901887  1
  Hg  Hg96  1  0.97329964  0.21382470  0.12811823  1
  Hg  Hg97  1  0.98677785  0.26136049  0.38488077  1
  Hg  Hg98  1  0.96719335  0.23420473  0.65134006  1
  Hg  Hg99  1  0.01512102  0.26480312  0.85459614  1
  Hg  Hg100  1  0.49776191  0.27291698  0.12632573  1
  Hg  Hg101  1  0.48313167  0.31233425  0.39025445  1
  Hg  Hg102  1  0.48800009  0.25976953  0.60147609  1
  Hg  Hg103  1  0.50591599  0.27915585  0.84587815  1
  Hg  Hg104  1  0.28127748  0.48474405  0.10742865  1
  Hg  Hg105  1  0.24847803  0.54284149  0.38644438  1
  Hg  Hg106  1  0.23322376  0.51884885  0.61893255  1
  Hg  Hg107  1  0.25787767  0.48010750  0.86606957  1
  Hg  Hg108  1  0.97419110  0.72771196  0.09818329  1
  Hg  Hg109  1  0.00417347  0.68875331  0.35211534  1
  Hg  Hg110  1  0.98596455  0.79901438  0.63905095  1
  Hg  Hg111  1  0.99680588  0.72403741  0.86997976  1
  Hg  Hg112  1  0.76146626  0.48819268  0.11386571  1
  Hg  Hg113  1  0.75633493  0.46289766  0.39152483  1
  Hg  Hg114  1  0.75938037  0.48163111  0.60529853  1
  Hg  Hg115  1  0.76428057  0.47800653  0.80872215  1
  Hg  Hg116  1  0.48419104  0.74192219  0.12933778  1
  Hg  Hg117  1  0.48145705  0.75656747  0.38767966  1
  Hg  Hg118  1  0.55038771  0.76035202  0.62939604  1
  Hg  Hg119  1  0.49818418  0.72228430  0.88616488  1
  Hg  Hg120  1  0.21871023  0.03764005  0.12801985  1
  Hg  Hg121  1  0.25253944  0.99000229  0.34028174  1
  Hg  Hg122  1  0.26197059  0.99609853  0.62862840  1
  Hg  Hg123  1  0.25837478  0.00149994  0.89924770  1
  Hg  Hg124  1  0.70178137  0.00625130  0.14724329  1
  Hg  Hg125  1  0.74590684  0.96093395  0.36341805  1
  Hg  Hg126  1  0.75964621  0.97851621  0.63199236  1
  Hg  Hg127  1  0.73807408  0.01396878  0.90539076  1
  K  K128  1  0.02893162  0.94670021  0.98167849  1
  K  K129  1  0.01108971  0.00074194  0.29140248  1
  K  K130  1  0.95499507  0.03835007  0.51309855  1
  K  K131  1  0.07173409  0.01579312  0.76166417  1
  K  K132  1  0.45590983  0.00541498  0.03689530  1
  K  K133  1  0.52261947  0.94371820  0.26744408  1
  K  K134  1  0.46209699  0.01629367  0.50473551  1
  K  K135  1  0.49233636  0.99039994  0.77107488  1
  K  K136  1  0.20884920  0.26665059  0.99429568  1
  K  K137  1  0.24271053  0.24818700  0.27205243  1
  K  K138  1  0.21727407  0.24590858  0.48810222  1
  K  K139  1  0.28427674  0.25846955  0.72334709  1
  K  K140  1  0.96950050  0.51267189  0.99947941  1
  K  K141  1  0.01572808  0.45345028  0.23432555  1
  K  K142  1  0.00524909  0.45986014  0.53214911  1
  K  K143  1  0.02368974  0.53342802  0.74394184  1
  K  K144  1  0.74918550  0.24715854  0.99713369  1
  K  K145  1  0.75182044  0.21200511  0.24755623  1
  K  K146  1  0.71309068  0.20809421  0.47685130  1
  K  K147  1  0.71971991  0.21305581  0.74061812  1
  K  K148  1  0.54304453  0.50731403  0.98961876  1
  K  K149  1  0.56940614  0.49001450  0.25834483  1
  K  K150  1  0.44883080  0.53129224  0.49627853  1
  K  K151  1  0.51921844  0.52322536  0.72319698  1
  K  K152  1  0.27120101  0.73993908  0.97822028  1
  K  K153  1  0.24555364  0.75869432  0.24668683  1
  K  K154  1  0.18507012  0.76015543  0.52976524  1
  K  K155  1  0.29272340  0.74018608  0.74663796  1
  K  K156  1  0.69928481  0.79404841  0.01768868  1
  K  K157  1  0.79793308  0.75794893  0.23669841  1
  K  K158  1  0.75880330  0.75445184  0.47883125  1
  K  K159  1  0.73774683  0.78774533  0.78193300  1
