# generated using pymatgen
data_KHgCl3
_symmetry_space_group_name_H-M   'P 1'
_cell_length_a   15.10810995
_cell_length_b   15.10810995
_cell_length_c   21.36609300
_cell_angle_alpha   90.00000000
_cell_angle_beta   90.00000000
_cell_angle_gamma   90.00000000
_symmetry_Int_Tables_number   1
_chemical_formula_structural   KHgCl3
_chemical_formula_sum   'K32 Hg32 Cl96'
_cell_volume   4876.91726732
_cell_formula_units_Z   32
loop_
 _symmetry_equiv_pos_site_id
 _symmetry_equiv_pos_as_xyz
  1  'x, y, z'
loop_
 _atom_site_type_symbol
 _atom_site_label
 _atom_site_symmetry_multiplicity
 _atom_site_fract_x
 _atom_site_fract_y
 _atom_site_fract_z
 _atom_site_occupancy
  Cl  Cl0  1  0.04553740  0.19871955  0.02234820  1
  Cl  Cl1  1  0.92170968  0.28560150  0.21644584  1
  Cl  Cl2  1  0.02995155  0.30532425  0.50160944  1
  Cl  Cl3  1  0.00375170  0.28993139  0.73936658  1
  Cl  Cl4  1  0.50571232  0.21210569  0.01234909  1
  Cl  Cl5  1  0.48986016  0.23782103  0.23673539  1
  Cl  Cl6  1  0.45390253  0.18787119  0.53379351  1
  Cl  Cl7  1  0.53540430  0.31907216  0.72910294  1
  Cl  Cl8  1  0.21336439  0.54107940  0.98323915  1
  Cl  Cl9  1  0.31979506  0.49723930  0.24845840  1
  Cl  Cl10  1  0.19843324  0.51692078  0.49312324  1
  Cl  Cl11  1  0.28095346  0.46658044  0.77030313  1
  Cl  Cl12  1  0.00874144  0.68951870  0.99457994  1
  Cl  Cl13  1  0.04253905  0.84613629  0.26621750  1
  Cl  Cl14  1  0.01319714  0.72085791  0.47367049  1
  Cl  Cl15  1  0.92585250  0.76092412  0.76979464  1
  Cl  Cl16  1  0.65603490  0.55761991  0.00133868  1
  Cl  Cl17  1  0.73098194  0.48474419  0.26049582  1
  Cl  Cl18  1  0.77152918  0.56757984  0.47375891  1
  Cl  Cl19  1  0.74958078  0.44453517  0.75418401  1
  Cl  Cl20  1  0.58468796  0.79729027  0.98255759  1
  Cl  Cl21  1  0.47668838  0.77359556  0.25083699  1
  Cl  Cl22  1  0.47358432  0.72231472  0.51825454  1
  Cl  Cl23  1  0.48351591  0.77076467  0.73725200  1
  Cl  Cl24  1  0.25839189  0.01160458  0.97597314  1
  Cl  Cl25  1  0.27262179  0.92935448  0.25590017  1
  Cl  Cl26  1  0.23075666  0.10026149  0.50647866  1
  Cl  Cl27  1  0.26461737  0.94142275  0.75877724  1
  Cl  Cl28  1  0.67505367  0.01815609  0.99230107  1
  Cl  Cl29  1  0.74409038  0.01609409  0.27527319  1
  Cl  Cl30  1  0.73494306  0.05731169  0.49827391  1
  Cl  Cl31  1  0.84866859  0.03173371  0.74847076  1
  Cl  Cl32  1  0.11926077  0.14076146  0.19239624  1
  Cl  Cl33  1  0.08097021  0.13583702  0.36985558  1
  Cl  Cl34  1  0.11557241  0.06371699  0.64998336  1
  Cl  Cl35  1  0.10307248  0.11064191  0.85414406  1
  Cl  Cl36  1  0.68829511  0.19315805  0.13174321  1
  Cl  Cl37  1  0.56708928  0.11730944  0.37821172  1
  Cl  Cl38  1  0.65042299  0.10867352  0.65137352  1
  Cl  Cl39  1  0.65307860  0.15832580  0.83297895  1
  Cl  Cl40  1  0.34473395  0.33812337  0.09786883  1
  Cl  Cl41  1  0.41058423  0.38214692  0.41331649  1
  Cl  Cl42  1  0.38437735  0.43598098  0.60848194  1
  Cl  Cl43  1  0.37293470  0.28738801  0.87592774  1
  Cl  Cl44  1  0.13347616  0.67372177  0.14126529  1
  Cl  Cl45  1  0.09943933  0.61776285  0.31486857  1
  Cl  Cl46  1  0.08343340  0.54116078  0.64485053  1
  Cl  Cl47  1  0.09582042  0.61009107  0.82767124  1
  Cl  Cl48  1  0.84724708  0.34805973  0.04757719  1
  Cl  Cl49  1  0.93227262  0.42497313  0.36897129  1
  Cl  Cl50  1  0.86771249  0.40738598  0.60478321  1
  Cl  Cl51  1  0.87804188  0.32960955  0.87876113  1
  Cl  Cl52  1  0.64092763  0.68261837  0.14390131  1
  Cl  Cl53  1  0.56770083  0.61583940  0.37140826  1
  Cl  Cl54  1  0.61747662  0.59575163  0.63532012  1
  Cl  Cl55  1  0.62759041  0.63736153  0.83001965  1
  Cl  Cl56  1  0.37985287  0.83726037  0.08885290  1
  Cl  Cl57  1  0.41620888  0.89884534  0.40093644  1
  Cl  Cl58  1  0.38669312  0.93014899  0.60168299  1
  Cl  Cl59  1  0.35584763  0.79330841  0.89626660  1
  Cl  Cl60  1  0.85988228  0.81970255  0.13863466  1
  Cl  Cl61  1  0.90882973  0.92160068  0.40307306  1
  Cl  Cl62  1  0.89800252  0.90740538  0.59694233  1
  Cl  Cl63  1  0.86678177  0.85548729  0.92936654  1
  Cl  Cl64  1  0.89475151  0.05182988  0.11891740  1
  Cl  Cl65  1  0.84671441  0.18725957  0.36896697  1
  Cl  Cl66  1  0.89976822  0.15957515  0.59934695  1
  Cl  Cl67  1  0.86626612  0.09363872  0.91335816  1
  Cl  Cl68  1  0.35853064  0.08650647  0.12562779  1
  Cl  Cl69  1  0.33017605  0.13439559  0.34273172  1
  Cl  Cl70  1  0.36889972  0.14525457  0.69928998  1
  Cl  Cl71  1  0.45041706  0.03951130  0.86500562  1
  Cl  Cl72  1  0.11528972  0.42591560  0.13443600  1
  Cl  Cl73  1  0.17592157  0.36556681  0.34942858  1
  Cl  Cl74  1  0.19099489  0.30038745  0.62839468  1
  Cl  Cl75  1  0.13764511  0.34427376  0.90105298  1
  Cl  Cl76  1  0.86765932  0.56864275  0.11346346  1
  Cl  Cl77  1  0.85440691  0.67829318  0.31573255  1
  Cl  Cl78  1  0.85954646  0.65685469  0.61868420  1
  Cl  Cl79  1  0.86251542  0.56796675  0.89378509  1
  Cl  Cl80  1  0.59679734  0.41437276  0.13327526  1
  Cl  Cl81  1  0.65691311  0.35905407  0.39758391  1
  Cl  Cl82  1  0.62813984  0.35935426  0.56834737  1
  Cl  Cl83  1  0.61428490  0.37597049  0.89964086  1
  Cl  Cl84  1  0.38340400  0.59192947  0.09872876  1
  Cl  Cl85  1  0.32542480  0.65280892  0.38529855  1
  Cl  Cl86  1  0.30882376  0.66367017  0.64413041  1
  Cl  Cl87  1  0.42362900  0.55958312  0.89151614  1
  Cl  Cl88  1  0.12000833  0.90684682  0.09458349  1
  Cl  Cl89  1  0.16134309  0.89612001  0.42426793  1
  Cl  Cl90  1  0.12371859  0.81364961  0.64831430  1
  Cl  Cl91  1  0.11505070  0.85615610  0.88146167  1
  Cl  Cl92  1  0.60873113  0.93734404  0.15150404  1
  Cl  Cl93  1  0.65737281  0.85350242  0.39935862  1
  Cl  Cl94  1  0.65210705  0.86415003  0.61468330  1
  Cl  Cl95  1  0.65643907  0.89553972  0.81728674  1
  Hg  Hg96  1  0.97311655  0.23150595  0.11863853  1
  Hg  Hg97  1  0.00202878  0.27752351  0.37884443  1
  Hg  Hg98  1  0.04194427  0.23225908  0.62284571  1
  Hg  Hg99  1  0.99649411  0.22783703  0.86452002  1
  Hg  Hg100  1  0.50727445  0.23173669  0.12465055  1
  Hg  Hg101  1  0.50934390  0.25979491  0.40320307  1
  Hg  Hg102  1  0.49771145  0.25814042  0.62930164  1
  Hg  Hg103  1  0.50714324  0.21314232  0.85032527  1
  Hg  Hg104  1  0.26119349  0.49328653  0.12717831  1
  Hg  Hg105  1  0.22841566  0.52100360  0.36424832  1
  Hg  Hg106  1  0.23652316  0.50073055  0.62149136  1
  Hg  Hg107  1  0.22215665  0.49900170  0.87381924  1
  Hg  Hg108  1  0.00655742  0.76667342  0.14759244  1
  Hg  Hg109  1  0.99423783  0.75945001  0.36074682  1
  Hg  Hg110  1  0.98951860  0.73742311  0.64061590  1
  Hg  Hg111  1  0.98443295  0.73583830  0.88181705  1
  Hg  Hg112  1  0.74089417  0.46717167  0.09150360  1
  Hg  Hg113  1  0.75265891  0.52739106  0.36688541  1
  Hg  Hg114  1  0.72612239  0.47452651  0.63310819  1
  Hg  Hg115  1  0.71370264  0.50244435  0.88104893  1
  Hg  Hg116  1  0.51407421  0.76714731  0.11676470  1
  Hg  Hg117  1  0.50205616  0.76533338  0.37601544  1
  Hg  Hg118  1  0.46866419  0.75665143  0.62695708  1
  Hg  Hg119  1  0.50518525  0.69239948  0.91990633  1
  Hg  Hg120  1  0.21553743  0.00961911  0.15888076  1
  Hg  Hg121  1  0.24678708  0.01261753  0.38110475  1
  Hg  Hg122  1  0.28147417  0.06568355  0.61622521  1
  Hg  Hg123  1  0.28758256  0.96229128  0.86959968  1
  Hg  Hg124  1  0.73317567  0.02915248  0.10437966  1
  Hg  Hg125  1  0.76024732  0.01912093  0.38910698  1
  Hg  Hg126  1  0.76960191  0.99348772  0.64144290  1
  Hg  Hg127  1  0.76860286  0.98104636  0.86804210  1
  K  K128  1  0.01852491  0.98803527  0.98046183  1
  K  K129  1  0.95702988  0.04404716  0.26970141  1
  K  K130  1  0.02358777  0.02705219  0.50541896  1
  K  K131  1  0.03902029  0.95024305  0.75786299  1
  K  K132  1  0.47228230  0.98867397  0.00756518  1
  K  K133  1  0.46681232  0.00704758  0.25886106  1
  K  K134  1  0.54230873  0.97924771  0.50704768  1
  K  K135  1  0.50756960  0.98438494  0.72821170  1
  K  K136  1  0.25711449  0.22011375  0.99630787  1
  K  K137  1  0.27226973  0.27711361  0.23285086  1
  K  K138  1  0.24336055  0.30439293  0.48490750  1
  K  K139  1  0.21854464  0.25823003  0.77112260  1
  K  K140  1  0.00321031  0.47527738  0.99718077  1
  K  K141  1  0.96534699  0.50597648  0.23540006  1
  K  K142  1  0.98776332  0.51265499  0.50525520  1
  K  K143  1  0.95253891  0.48871681  0.76258743  1
  K  K144  1  0.72302203  0.22317982  0.97213080  1
  K  K145  1  0.71257773  0.26175636  0.27039359  1
  K  K146  1  0.78971646  0.27076397  0.49785013  1
  K  K147  1  0.78985637  0.23759469  0.72868305  1
  K  K148  1  0.47788015  0.44024810  0.00669323  1
  K  K149  1  0.51788761  0.55352920  0.23230588  1
  K  K150  1  0.52687556  0.51367585  0.49988553  1
  K  K151  1  0.48692992  0.52498162  0.74615956  1
  K  K152  1  0.21459437  0.75440858  0.00323623  1
  K  K153  1  0.26260625  0.72515394  0.25363779  1
  K  K154  1  0.24198686  0.73315441  0.50921562  1
  K  K155  1  0.24708109  0.73576330  0.77425191  1
  K  K156  1  0.78836150  0.71360983  0.01679917  1
  K  K157  1  0.71491442  0.80837286  0.25606541  1
  K  K158  1  0.79844008  0.78647054  0.49600157  1
  K  K159  1  0.72164131  0.74432238  0.72651045  1
