# generated using pymatgen
data_KHgF3
_symmetry_space_group_name_H-M   'P 1'
_cell_length_a   13.01212808
_cell_length_b   13.01212808
_cell_length_c   18.40192900
_cell_angle_alpha   90.00000000
_cell_angle_beta   90.00000000
_cell_angle_gamma   90.00000000
_symmetry_Int_Tables_number   1
_chemical_formula_structural   KHgF3
_chemical_formula_sum   'K32 Hg32 F96'
_cell_volume   3115.73138743
_cell_formula_units_Z   32
loop_
 _symmetry_equiv_pos_site_id
 _symmetry_equiv_pos_as_xyz
  1  'x, y, z'
loop_
 _atom_site_type_symbol
 _atom_site_label
 _atom_site_symmetry_multiplicity
 _atom_site_fract_x
 _atom_site_fract_y
 _atom_site_fract_z
 _atom_site_occupancy
  F  F0  1  0.96176125  0.22895886  0.99735799  1
  F  F1  1  0.04994790  0.22951914  0.25062543  1
  F  F2  1  0.95014281  0.27412431  0.49517354  1
  F  F3  1  0.03471873  0.27234913  0.75627245  1
  F  F4  1  0.47124147  0.28573395  0.99595537  1
  F  F5  1  0.53231843  0.21207546  0.25235158  1
  F  F6  1  0.45863056  0.29448248  0.49660752  1
  F  F7  1  0.53276003  0.22230691  0.74967007  1
  F  F8  1  0.29517736  0.49600662  0.00364123  1
  F  F9  1  0.19998014  0.47629222  0.24423375  1
  F  F10  1  0.29794104  0.52382122  0.50385103  1
  F  F11  1  0.20819292  0.49515508  0.74479650  1
  F  F12  1  0.97288886  0.78740630  0.00618145  1
  F  F13  1  0.04386503  0.70977683  0.24594520  1
  F  F14  1  0.97336315  0.78930353  0.50530076  1
  F  F15  1  0.02961975  0.70799455  0.74836531  1
  F  F16  1  0.77247422  0.53836587  0.00348184  1
  F  F17  1  0.70427030  0.47186876  0.24913926  1
  F  F18  1  0.79722160  0.53017009  0.49844235  1
  F  F19  1  0.73005814  0.46592832  0.74477148  1
  F  F20  1  0.46511867  0.72490345  0.99125102  1
  F  F21  1  0.54899537  0.72803179  0.25482256  1
  F  F22  1  0.45246887  0.76820434  0.49710588  1
  F  F23  1  0.53961308  0.77610617  0.75262887  1
  F  F24  1  0.27473071  0.94951001  0.99428041  1
  F  F25  1  0.27551459  0.04763928  0.24753649  1
  F  F26  1  0.22639752  0.95397567  0.50157855  1
  F  F27  1  0.22426451  0.05240682  0.75399535  1
  F  F28  1  0.79363966  0.00995740  0.99779860  1
  F  F29  1  0.69842644  0.97578939  0.25642399  1
  F  F30  1  0.80289941  0.02364296  0.49538684  1
  F  F31  1  0.70731771  0.99398355  0.75311020  1
  F  F32  1  0.07567036  0.08863042  0.11611324  1
  F  F33  1  0.10837578  0.12947635  0.40445178  1
  F  F34  1  0.06975209  0.10863318  0.61571785  1
  F  F35  1  0.14573855  0.12941972  0.91183731  1
  F  F36  1  0.59356209  0.11422998  0.09728993  1
  F  F37  1  0.60801730  0.12100037  0.40547998  1
  F  F38  1  0.59330805  0.12109060  0.58956052  1
  F  F39  1  0.66133613  0.15380709  0.88913881  1
  F  F40  1  0.40792487  0.38120776  0.15233927  1
  F  F41  1  0.38717538  0.36746451  0.34016595  1
  F  F42  1  0.40791458  0.38458954  0.65355072  1
  F  F43  1  0.33448364  0.35214462  0.85621684  1
  F  F44  1  0.09736347  0.61278447  0.09094214  1
  F  F45  1  0.10559371  0.63339834  0.40483409  1
  F  F46  1  0.09941900  0.61748442  0.59489128  1
  F  F47  1  0.16959780  0.64813789  0.89136348  1
  F  F48  1  0.91692870  0.38602976  0.12809719  1
  F  F49  1  0.90458489  0.39025994  0.34295745  1
  F  F50  1  0.92295758  0.40446546  0.63466644  1
  F  F51  1  0.84193812  0.36254538  0.87845024  1
  F  F52  1  0.57983522  0.59978833  0.11504816  1
  F  F53  1  0.58980281  0.60071977  0.40067501  1
  F  F54  1  0.58230621  0.61534775  0.62055697  1
  F  F55  1  0.66626586  0.64744904  0.86714915  1
  F  F56  1  0.42981031  0.89139798  0.13214939  1
  F  F57  1  0.39457268  0.87443401  0.34485792  1
  F  F58  1  0.42247085  0.91026188  0.63259881  1
  F  F59  1  0.35371487  0.87029090  0.83658759  1
  F  F60  1  0.90198939  0.88284721  0.16430030  1
  F  F61  1  0.89621899  0.87685897  0.34915668  1
  F  F62  1  0.90130308  0.88937313  0.65765348  1
  F  F63  1  0.84221701  0.85039321  0.86329586  1
  F  F64  1  0.83060668  0.13857177  0.14761876  1
  F  F65  1  0.85805996  0.12959669  0.34230857  1
  F  F66  1  0.82688283  0.15241495  0.64394718  1
  F  F67  1  0.90114770  0.11041822  0.84639914  1
  F  F68  1  0.33702172  0.14140850  0.10139356  1
  F  F69  1  0.36699573  0.11209637  0.40779035  1
  F  F70  1  0.32929684  0.14508790  0.61531464  1
  F  F71  1  0.41293637  0.10293287  0.88060223  1
  F  F72  1  0.16157079  0.34714151  0.10594368  1
  F  F73  1  0.14649552  0.38202602  0.40839301  1
  F  F74  1  0.16248343  0.35447322  0.60440958  1
  F  F75  1  0.10127309  0.39270845  0.90108464  1
  F  F76  1  0.85188419  0.62823979  0.15608450  1
  F  F77  1  0.83868200  0.64353575  0.35571633  1
  F  F78  1  0.83361316  0.65100811  0.64025804  1
  F  F79  1  0.92263760  0.60097471  0.87871666  1
  F  F80  1  0.66152501  0.35788795  0.10169124  1
  F  F81  1  0.66438611  0.35406423  0.39011505  1
  F  F82  1  0.65000543  0.37474078  0.59183063  1
  F  F83  1  0.58339276  0.40803843  0.87468312  1
  F  F84  1  0.33851112  0.64435950  0.14432431  1
  F  F85  1  0.35083278  0.62091852  0.34085210  1
  F  F86  1  0.33897972  0.65319929  0.64260251  1
  F  F87  1  0.39873874  0.60993005  0.84241496  1
  F  F88  1  0.17204790  0.85708264  0.13346655  1
  F  F89  1  0.13432813  0.88997734  0.34249072  1
  F  F90  1  0.16255410  0.86059520  0.64702868  1
  F  F91  1  0.08702725  0.89384837  0.86626400  1
  F  F92  1  0.67329218  0.85124247  0.10585224  1
  F  F93  1  0.64633915  0.86592775  0.40859943  1
  F  F94  1  0.66698321  0.86604737  0.60260075  1
  F  F95  1  0.59898036  0.89337267  0.90274119  1
  Hg  Hg96  1  0.00502149  0.24207198  0.12504143  1
  Hg  Hg97  1  0.99850800  0.25339905  0.37288111  1
  Hg  Hg98  1  0.99564808  0.25597599  0.62296495  1
  Hg  Hg99  1  0.00477232  0.24783840  0.87727721  1
  Hg  Hg100  1  0.50404827  0.25088369  0.12307967  1
  Hg  Hg101  1  0.50069652  0.24973759  0.37698781  1
  Hg  Hg102  1  0.50036856  0.25158809  0.62159341  1
  Hg  Hg103  1  0.50147468  0.25326021  0.87333562  1
  Hg  Hg104  1  0.24557615  0.49937352  0.12456887  1
  Hg  Hg105  1  0.25099193  0.49910424  0.37372922  1
  Hg  Hg106  1  0.24973654  0.50382372  0.62314449  1
  Hg  Hg107  1  0.25295673  0.50054059  0.87434751  1
  Hg  Hg108  1  0.00144646  0.75086605  0.12720433  1
  Hg  Hg109  1  0.99982512  0.75153136  0.37230368  1
  Hg  Hg110  1  0.99725236  0.75000173  0.62834645  1
  Hg  Hg111  1  0.00221089  0.74906128  0.87553935  1
  Hg  Hg112  1  0.74792606  0.50040421  0.12651776  1
  Hg  Hg113  1  0.74949863  0.50045903  0.37444752  1
  Hg  Hg114  1  0.75435128  0.50227779  0.62180020  1
  Hg  Hg115  1  0.74960411  0.50240085  0.87458857  1
  Hg  Hg116  1  0.50495326  0.74582023  0.12533226  1
  Hg  Hg117  1  0.50299318  0.74668657  0.37642267  1
  Hg  Hg118  1  0.49550747  0.75879103  0.62519564  1
  Hg  Hg119  1  0.49679100  0.75286838  0.87188563  1
  Hg  Hg120  1  0.24960875  0.00288324  0.12154843  1
  Hg  Hg121  1  0.25165552  0.00051744  0.37446997  1
  Hg  Hg122  1  0.24940954  0.00008050  0.62694652  1
  Hg  Hg123  1  0.25181996  0.00141040  0.87398006  1
  Hg  Hg124  1  0.75281316  0.99430492  0.12817162  1
  Hg  Hg125  1  0.74885280  0.00070948  0.37601735  1
  Hg  Hg126  1  0.75248520  0.00581288  0.62375984  1
  Hg  Hg127  1  0.75002598  0.00118145  0.87551180  1
  K  K128  1  0.00175005  0.00542861  0.98630166  1
  K  K129  1  0.00089764  0.01564840  0.25445277  1
  K  K130  1  0.01011999  0.99541137  0.49650540  1
  K  K131  1  0.01554471  0.00670882  0.74698010  1
  K  K132  1  0.48431469  0.99910028  0.00081552  1
  K  K133  1  0.49207419  0.00565090  0.25087770  1
  K  K134  1  0.50031029  0.98453590  0.49594422  1
  K  K135  1  0.49941080  0.99567655  0.76282097  1
  K  K136  1  0.26081594  0.26949022  0.98910581  1
  K  K137  1  0.25837413  0.26432898  0.23451221  1
  K  K138  1  0.25405215  0.24537510  0.49472226  1
  K  K139  1  0.24578541  0.26631131  0.73398422  1
  K  K140  1  0.98399234  0.48984066  0.00022690  1
  K  K141  1  0.99350812  0.50905352  0.23903153  1
  K  K142  1  0.00517655  0.48469222  0.49993859  1
  K  K143  1  0.00232880  0.49491695  0.75842584  1
  K  K144  1  0.75509896  0.22567575  0.00871763  1
  K  K145  1  0.74230410  0.26083354  0.25749094  1
  K  K146  1  0.74255635  0.23211507  0.50138065  1
  K  K147  1  0.74672939  0.24449943  0.76698858  1
  K  K148  1  0.50170234  0.49577921  0.99848607  1
  K  K149  1  0.49688285  0.51668520  0.25157663  1
  K  K150  1  0.50379628  0.49432151  0.51097396  1
  K  K151  1  0.51828908  0.50607629  0.74905239  1
  K  K152  1  0.25362598  0.73634382  0.01472298  1
  K  K153  1  0.24914582  0.75819133  0.25344212  1
  K  K154  1  0.24224435  0.73834676  0.51597342  1
  K  K155  1  0.24113129  0.73111395  0.75915867  1
  K  K156  1  0.75744873  0.75792934  0.98342409  1
  K  K157  1  0.75748372  0.76905203  0.24863662  1
  K  K158  1  0.76381351  0.74300599  0.49879677  1
  K  K159  1  0.74674932  0.77677827  0.74303474  1
