# generated using pymatgen
data_KHgI3
_symmetry_space_group_name_H-M   'P 1'
_cell_length_a   17.08193489
_cell_length_b   17.08193489
_cell_length_c   24.15750500
_cell_angle_alpha   90.00000000
_cell_angle_beta   90.00000000
_cell_angle_gamma   90.00000000
_symmetry_Int_Tables_number   1
_chemical_formula_structural   KHgI3
_chemical_formula_sum   'K32 Hg32 I96'
_cell_volume   7048.97877179
_cell_formula_units_Z   32
loop_
 _symmetry_equiv_pos_site_id
 _symmetry_equiv_pos_as_xyz
  1  'x, y, z'
loop_
 _atom_site_type_symbol
 _atom_site_label
 _atom_site_symmetry_multiplicity
 _atom_site_fract_x
 _atom_site_fract_y
 _atom_site_fract_z
 _atom_site_occupancy
  Hg  Hg0  1  0.09839670  0.97709808  0.98933493  1
  Hg  Hg1  1  0.00704439  0.04409449  0.24333833  1
  Hg  Hg2  1  0.96236507  0.01499300  0.49864883  1
  Hg  Hg3  1  0.02868244  0.97884729  0.76647644  1
  Hg  Hg4  1  0.55063318  0.94248556  0.01277856  1
  Hg  Hg5  1  0.52387243  0.02811890  0.24496135  1
  Hg  Hg6  1  0.50212600  0.00744457  0.51952919  1
  Hg  Hg7  1  0.52634690  0.91555726  0.77734529  1
  Hg  Hg8  1  0.32220307  0.22234707  0.95645897  1
  Hg  Hg9  1  0.24101146  0.31929520  0.23016893  1
  Hg  Hg10  1  0.24760584  0.25024206  0.51236215  1
  Hg  Hg11  1  0.26777305  0.23386054  0.68987529  1
  Hg  Hg12  1  0.04010429  0.46560330  0.00141329  1
  Hg  Hg13  1  0.92576560  0.59368674  0.27233691  1
  Hg  Hg14  1  0.98603021  0.50397365  0.48969344  1
  Hg  Hg15  1  0.94603624  0.51725781  0.74587941  1
  Hg  Hg16  1  0.78301305  0.25802323  0.97025173  1
  Hg  Hg17  1  0.76021424  0.28576767  0.25545330  1
  Hg  Hg18  1  0.71821945  0.23594718  0.53344148  1
  Hg  Hg19  1  0.76440519  0.23691019  0.73123579  1
  Hg  Hg20  1  0.53708816  0.46533361  0.98420553  1
  Hg  Hg21  1  0.47136406  0.51212573  0.24981064  1
  Hg  Hg22  1  0.44251088  0.53088856  0.51092711  1
  Hg  Hg23  1  0.51513190  0.51289636  0.75583399  1
  Hg  Hg24  1  0.22775353  0.76241299  0.03754757  1
  Hg  Hg25  1  0.22692669  0.73570597  0.25763202  1
  Hg  Hg26  1  0.21214925  0.79447361  0.42494609  1
  Hg  Hg27  1  0.18573686  0.71860423  0.76471186  1
  Hg  Hg28  1  0.71206078  0.70192172  0.05067908  1
  Hg  Hg29  1  0.76017317  0.80839425  0.22803869  1
  Hg  Hg30  1  0.72881927  0.75273545  0.51645468  1
  Hg  Hg31  1  0.78454704  0.77629899  0.77977823  1
  I  I32  1  0.17836679  0.10361005  0.03009923  1
  I  I33  1  0.15458070  0.11003645  0.25669420  1
  I  I34  1  0.05910901  0.07149532  0.41712770  1
  I  I35  1  0.16961894  0.02032944  0.72204285  1
  I  I36  1  0.68690220  0.02368313  0.99813534  1
  I  I37  1  0.58273599  0.14288495  0.31698239  1
  I  I38  1  0.62932944  0.11093542  0.58354137  1
  I  I39  1  0.63105618  0.03177620  0.75233559  1
  I  I40  1  0.38963445  0.41147675  0.97481681  1
  I  I41  1  0.30919858  0.48412920  0.26265347  1
  I  I42  1  0.32975106  0.36491154  0.57499598  1
  I  I43  1  0.42420460  0.37566184  0.75385957  1
  I  I44  1  0.09417922  0.65515273  0.03481826  1
  I  I45  1  0.12075333  0.63873002  0.20621206  1
  I  I46  1  0.11263581  0.59530926  0.51671845  1
  I  I47  1  0.11674102  0.54805148  0.74563097  1
  I  I48  1  0.86978775  0.39860597  0.95303605  1
  I  I49  1  0.82136149  0.45195180  0.28416372  1
  I  I50  1  0.83774279  0.45083221  0.47174107  1
  I  I51  1  0.91389489  0.35599908  0.76847799  1
  I  I52  1  0.67883073  0.51195335  0.02153976  1
  I  I53  1  0.57095219  0.61923648  0.30028212  1
  I  I54  1  0.62554003  0.64592318  0.46267903  1
  I  I55  1  0.67017904  0.54060309  0.72507092  1
  I  I56  1  0.42063213  0.90790348  0.07311154  1
  I  I57  1  0.37923263  0.96088342  0.26668112  1
  I  I58  1  0.33771585  0.89625677  0.45222983  1
  I  I59  1  0.36951021  0.87382799  0.75780520  1
  I  I60  1  0.97122596  0.87791710  0.99579589  1
  I  I61  1  0.80388363  0.87093037  0.12904812  1
  I  I62  1  0.82304040  0.93173116  0.47147385  1
  I  I63  1  0.86887356  0.96695514  0.77017151  1
  I  I64  1  0.89220774  0.15873812  0.02430691  1
  I  I65  1  0.91860266  0.19841933  0.22821332  1
  I  I66  1  0.86849570  0.18573213  0.50060706  1
  I  I67  1  0.87450751  0.15296589  0.67762699  1
  I  I68  1  0.41854202  0.15824402  0.03506038  1
  I  I69  1  0.36192768  0.21331290  0.25361380  1
  I  I70  1  0.39599121  0.13256293  0.48711611  1
  I  I71  1  0.39009058  0.14161335  0.67487009  1
  I  I72  1  0.19058446  0.31650157  0.94034448  1
  I  I73  1  0.10022459  0.37415560  0.27286424  1
  I  I74  1  0.06745434  0.35162714  0.48712371  1
  I  I75  1  0.15111059  0.32132017  0.72723541  1
  I  I76  1  0.86095369  0.66642934  0.01855039  1
  I  I77  1  0.89165602  0.62237760  0.16526932  1
  I  I78  1  0.88017622  0.69903561  0.50964604  1
  I  I79  1  0.86873823  0.60670411  0.82442169  1
  I  I80  1  0.62246935  0.27617140  0.98424164  1
  I  I81  1  0.56292990  0.37043306  0.27449515  1
  I  I82  1  0.60315167  0.32764467  0.47872224  1
  I  I83  1  0.62615916  0.28958667  0.77070999  1
  I  I84  1  0.33929133  0.64835083  0.00929442  1
  I  I85  1  0.38308847  0.72771855  0.22725221  1
  I  I86  1  0.34995136  0.66315263  0.53654614  1
  I  I87  1  0.38810405  0.61835347  0.73398304  1
  I  I88  1  0.21405950  0.86896007  0.94178996  1
  I  I89  1  0.15058893  0.86277935  0.31379199  1
  I  I90  1  0.09849356  0.83861253  0.50160817  1
  I  I91  1  0.03582125  0.79797155  0.77891640  1
  I  I92  1  0.59211526  0.76643073  0.98491751  1
  I  I93  1  0.63015733  0.89420922  0.27929716  1
  I  I94  1  0.63671519  0.84474699  0.58091862  1
  I  I95  1  0.59856795  0.76365524  0.76626083  1
  I  I96  1  0.99897546  0.00861940  0.12877182  1
  I  I97  1  0.89944786  0.94913089  0.29692657  1
  I  I98  1  0.98832224  0.97588178  0.60882607  1
  I  I99  1  0.06103143  0.06152946  0.87677305  1
  I  I100  1  0.57142332  0.08310148  0.14130059  1
  I  I101  1  0.57592648  0.94528071  0.42876626  1
  I  I102  1  0.44115357  0.94059157  0.61520856  1
  I  I103  1  0.47697207  0.94888449  0.89825415  1
  I  I104  1  0.24631068  0.31512170  0.11259224  1
  I  I105  1  0.24501985  0.26218820  0.39749844  1
  I  I106  1  0.15885411  0.15747120  0.58217069  1
  I  I107  1  0.37566372  0.18520587  0.84817525  1
  I  I108  1  0.02447536  0.42831799  0.10745685  1
  I  I109  1  0.01453772  0.59761910  0.36632656  1
  I  I110  1  0.93052462  0.52972673  0.62966318  1
  I  I111  1  0.07050428  0.50015785  0.89569778  1
  I  I112  1  0.71775883  0.29116773  0.14650910  1
  I  I113  1  0.77506602  0.24876623  0.36465263  1
  I  I114  1  0.74404650  0.34939843  0.62213285  1
  I  I115  1  0.80028135  0.17740108  0.86107388  1
  I  I116  1  0.47465234  0.50007324  0.12910805  1
  I  I117  1  0.41944433  0.46860305  0.40899730  1
  I  I118  1  0.53409574  0.50812206  0.60246600  1
  I  I119  1  0.55109693  0.55542084  0.87529894  1
  I  I120  1  0.20631394  0.86070497  0.12787071  1
  I  I121  1  0.27083688  0.66101118  0.37457670  1
  I  I122  1  0.21582631  0.75393805  0.65483670  1
  I  I123  1  0.24457117  0.67193276  0.86464544  1
  I  I124  1  0.65133760  0.68899420  0.15879775  1
  I  I125  1  0.79758797  0.72222155  0.32081923  1
  I  I126  1  0.81843873  0.75324273  0.67220239  1
  I  I127  1  0.78591067  0.80647115  0.88858995  1
  K  K128  1  0.05488045  0.21721815  0.12003925  1
  K  K129  1  0.98470919  0.25646272  0.36818393  1
  K  K130  1  0.95682024  0.31735687  0.61124848  1
  K  K131  1  0.99528697  0.25842849  0.88615378  1
  K  K132  1  0.49396058  0.28386549  0.14438899  1
  K  K133  1  0.45645887  0.26724677  0.38457493  1
  K  K134  1  0.52592957  0.29611746  0.62699778  1
  K  K135  1  0.58033493  0.13421982  0.87846134  1
  K  K136  1  0.24618824  0.52539709  0.11747730  1
  K  K137  1  0.19547906  0.46787934  0.39523690  1
  K  K138  1  0.25097992  0.54040783  0.63203721  1
  K  K139  1  0.27539188  0.45823203  0.83943374  1
  K  K140  1  0.00542304  0.79152229  0.13122186  1
  K  K141  1  0.96416821  0.80548445  0.39167902  1
  K  K142  1  0.01421394  0.73321768  0.62537911  1
  K  K143  1  0.00888107  0.71164728  0.90892517  1
  K  K144  1  0.68732049  0.49288450  0.17722896  1
  K  K145  1  0.66768389  0.47358579  0.38087043  1
  K  K146  1  0.73489533  0.54686641  0.58023315  1
  K  K147  1  0.73286129  0.44788251  0.84830250  1
  K  K148  1  0.47242283  0.71514441  0.10088908  1
  K  K149  1  0.46828345  0.79173836  0.35653865  1
  K  K150  1  0.48203952  0.73435938  0.63790478  1
  K  K151  1  0.44348905  0.73548470  0.86545435  1
  K  K152  1  0.30460356  0.05624065  0.14518482  1
  K  K153  1  0.27325417  0.05510454  0.37311967  1
  K  K154  1  0.23921134  0.96109872  0.58133449  1
  K  K155  1  0.27867749  0.01020713  0.84771307  1
  K  K156  1  0.78736646  0.07977304  0.13756164  1
  K  K157  1  0.73916462  0.04061864  0.36709917  1
  K  K158  1  0.77879139  0.97475206  0.63124735  1
  K  K159  1  0.85996735  0.00111830  0.91414399  1
