# generated using pymatgen
data_KInBr3
_symmetry_space_group_name_H-M   'P 1'
_cell_length_a   16.14697992
_cell_length_b   16.14697992
_cell_length_c   22.83527800
_cell_angle_alpha   90.00000000
_cell_angle_beta   90.00000000
_cell_angle_gamma   90.00000000
_symmetry_Int_Tables_number   1
_chemical_formula_structural   KInBr3
_chemical_formula_sum   'K32 In32 Br96'
_cell_volume   5953.72695841
_cell_formula_units_Z   32
loop_
 _symmetry_equiv_pos_site_id
 _symmetry_equiv_pos_as_xyz
  1  'x, y, z'
loop_
 _atom_site_type_symbol
 _atom_site_label
 _atom_site_symmetry_multiplicity
 _atom_site_fract_x
 _atom_site_fract_y
 _atom_site_fract_z
 _atom_site_occupancy
  Br  Br0  1  0.07367164  0.14895043  0.97314102  1
  Br  Br1  1  0.18701818  0.05564264  0.25603914  1
  Br  Br2  1  0.15232562  0.07327510  0.48104644  1
  Br  Br3  1  0.08127427  0.15721343  0.76282201  1
  Br  Br4  1  0.56946171  0.15641729  0.96857402  1
  Br  Br5  1  0.65613560  0.08426577  0.27655174  1
  Br  Br6  1  0.68124988  0.06971236  0.47752840  1
  Br  Br7  1  0.60219855  0.11665222  0.79523378  1
  Br  Br8  1  0.40246130  0.37852361  0.01839877  1
  Br  Br9  1  0.37541633  0.40433686  0.22006734  1
  Br  Br10  1  0.33421130  0.39410850  0.51830737  1
  Br  Br11  1  0.37532860  0.39153148  0.71156493  1
  Br  Br12  1  0.11585017  0.67643160  0.97769190  1
  Br  Br13  1  0.16803794  0.58114800  0.28960447  1
  Br  Br14  1  0.14487475  0.57668005  0.47156188  1
  Br  Br15  1  0.11194299  0.65285722  0.77981493  1
  Br  Br16  1  0.89841891  0.36087162  0.04520021  1
  Br  Br17  1  0.83171270  0.39509248  0.22777824  1
  Br  Br18  1  0.88753484  0.38724608  0.53317475  1
  Br  Br19  1  0.85724844  0.36492945  0.72626065  1
  Br  Br20  1  0.57356299  0.65759234  0.99398701  1
  Br  Br21  1  0.65170410  0.58965650  0.26684757  1
  Br  Br22  1  0.68247198  0.56860074  0.47772146  1
  Br  Br23  1  0.62844129  0.65486370  0.80547738  1
  Br  Br24  1  0.39126195  0.86093663  0.02352941  1
  Br  Br25  1  0.38902867  0.89705049  0.22433428  1
  Br  Br26  1  0.33165445  0.89419378  0.53878037  1
  Br  Br27  1  0.40953113  0.88901097  0.73370290  1
  Br  Br28  1  0.92816158  0.85648400  0.01841190  1
  Br  Br29  1  0.83666571  0.89310819  0.23749168  1
  Br  Br30  1  0.88134360  0.90035495  0.51389921  1
  Br  Br31  1  0.84670966  0.86104948  0.70598026  1
  Br  Br32  1  0.82459214  0.08113078  0.00775633  1
  Br  Br33  1  0.87465463  0.15531826  0.23679985  1
  Br  Br34  1  0.92125951  0.14932825  0.53110076  1
  Br  Br35  1  0.83330127  0.11145840  0.74046910  1
  Br  Br36  1  0.37524226  0.09616016  0.04819916  1
  Br  Br37  1  0.43053975  0.14405475  0.22791719  1
  Br  Br38  1  0.37534734  0.14543077  0.52607112  1
  Br  Br39  1  0.41176754  0.12102873  0.70125388  1
  Br  Br40  1  0.13181588  0.41569117  0.98230685  1
  Br  Br41  1  0.08104835  0.31629727  0.27647154  1
  Br  Br42  1  0.10510721  0.33868228  0.47041216  1
  Br  Br43  1  0.14384925  0.39804056  0.79577316  1
  Br  Br44  1  0.87792802  0.61331031  0.03021277  1
  Br  Br45  1  0.87754016  0.64668676  0.22997139  1
  Br  Br46  1  0.92151667  0.62601362  0.53154387  1
  Br  Br47  1  0.84327708  0.61960865  0.73725151  1
  Br  Br48  1  0.61833003  0.43027781  0.96494493  1
  Br  Br49  1  0.59698649  0.33702370  0.26603718  1
  Br  Br50  1  0.56629279  0.31902215  0.47668866  1
  Br  Br51  1  0.62188368  0.36236651  0.77157326  1
  Br  Br52  1  0.35412225  0.60684646  0.03573908  1
  Br  Br53  1  0.42025851  0.65095137  0.22701230  1
  Br  Br54  1  0.36550565  0.64978210  0.51312379  1
  Br  Br55  1  0.39695964  0.64317007  0.70860835  1
  Br  Br56  1  0.16425057  0.92314749  0.98085556  1
  Br  Br57  1  0.06975555  0.81424206  0.25979738  1
  Br  Br58  1  0.09781583  0.82237470  0.47755166  1
  Br  Br59  1  0.14195182  0.90798412  0.76747624  1
  Br  Br60  1  0.60629722  0.91936078  0.97783000  1
  Br  Br61  1  0.60952644  0.83188270  0.28011666  1
  Br  Br62  1  0.57665515  0.81439747  0.48045249  1
  Br  Br63  1  0.63222051  0.88919405  0.78506551  1
  Br  Br64  1  0.01942931  0.03074230  0.11194881  1
  Br  Br65  1  0.96698923  0.02177683  0.38700227  1
  Br  Br66  1  0.05035482  0.97887636  0.61451454  1
  Br  Br67  1  0.96625858  0.98917078  0.88331393  1
  Br  Br68  1  0.57200890  0.97645682  0.13653159  1
  Br  Br69  1  0.47727781  0.99795045  0.35947901  1
  Br  Br70  1  0.58686667  0.97236399  0.62861282  1
  Br  Br71  1  0.41235811  0.99078359  0.87849829  1
  Br  Br72  1  0.21031503  0.25951129  0.12596073  1
  Br  Br73  1  0.28040337  0.23609092  0.38933621  1
  Br  Br74  1  0.19365819  0.23215626  0.61153094  1
  Br  Br75  1  0.30636668  0.21953242  0.87103902  1
  Br  Br76  1  0.05190121  0.52337085  0.11733749  1
  Br  Br77  1  0.95640860  0.48825134  0.39203354  1
  Br  Br78  1  0.07371789  0.47144364  0.61825681  1
  Br  Br79  1  0.94944571  0.49360983  0.89719273  1
  Br  Br80  1  0.69873035  0.22882032  0.13509629  1
  Br  Br81  1  0.76637300  0.26133362  0.36414021  1
  Br  Br82  1  0.68553554  0.22255616  0.63524204  1
  Br  Br83  1  0.79221848  0.25603679  0.87043105  1
  Br  Br84  1  0.55704910  0.48805335  0.13043543  1
  Br  Br85  1  0.47504277  0.50025939  0.35511323  1
  Br  Br86  1  0.57016305  0.47589918  0.61935630  1
  Br  Br87  1  0.42591670  0.51740804  0.87835904  1
  Br  Br88  1  0.21835725  0.76900103  0.11246169  1
  Br  Br89  1  0.28842211  0.78036914  0.38908422  1
  Br  Br90  1  0.19005493  0.72400641  0.61481236  1
  Br  Br91  1  0.29791822  0.74905118  0.89024463  1
  Br  Br92  1  0.70912342  0.74229429  0.13604042  1
  Br  Br93  1  0.79125456  0.74184150  0.36610138  1
  Br  Br94  1  0.67390851  0.72081007  0.64376237  1
  Br  Br95  1  0.81154829  0.78690889  0.86246691  1
  In  In96  1  0.97622388  0.01590655  0.99971473  1
  In  In97  1  0.01267647  0.98909220  0.25337726  1
  In  In98  1  0.00218574  0.01245484  0.50307036  1
  In  In99  1  0.98970753  0.00445013  0.74692688  1
  In  In100  1  0.47809089  0.01971328  0.97881876  1
  In  In101  1  0.51301933  0.00383326  0.24275334  1
  In  In102  1  0.51514014  0.99145276  0.49666478  1
  In  In103  1  0.52225799  0.00629195  0.73111990  1
  In  In104  1  0.24544345  0.24933513  0.99449851  1
  In  In105  1  0.24882672  0.23382878  0.25231306  1
  In  In106  1  0.25184470  0.25336619  0.50425678  1
  In  In107  1  0.25218938  0.26164336  0.74790639  1
  In  In108  1  0.98764421  0.48885330  0.01140578  1
  In  In109  1  0.01201813  0.48661213  0.25958162  1
  In  In110  1  0.01304767  0.49005498  0.50784367  1
  In  In111  1  0.00804083  0.50726176  0.75262261  1
  In  In112  1  0.73213806  0.26512714  0.99535231  1
  In  In113  1  0.74378581  0.25847434  0.24645213  1
  In  In114  1  0.73208259  0.24813647  0.50227208  1
  In  In115  1  0.73919150  0.24841974  0.74842827  1
  In  In116  1  0.47984531  0.52223817  0.98689938  1
  In  In117  1  0.50118993  0.51037008  0.23978088  1
  In  In118  1  0.51368121  0.49663000  0.49684267  1
  In  In119  1  0.50792669  0.50952093  0.73829757  1
  In  In120  1  0.24421617  0.78035004  0.99764372  1
  In  In121  1  0.24270678  0.74288225  0.25698799  1
  In  In122  1  0.24602882  0.76243750  0.50610135  1
  In  In123  1  0.25560701  0.76094864  0.74740135  1
  In  In124  1  0.75882247  0.76262245  0.99041982  1
  In  In125  1  0.75149030  0.75241982  0.25054973  1
  In  In126  1  0.74235835  0.73872107  0.50462506  1
  In  In127  1  0.74054629  0.75037684  0.75091754  1
  K  K128  1  0.00923534  0.24955089  0.14626877  1
  K  K129  1  0.97159706  0.23528891  0.38517381  1
  K  K130  1  0.99703995  0.27528899  0.63741622  1
  K  K131  1  0.00077658  0.28367740  0.86429131  1
  K  K132  1  0.49764939  0.28140717  0.13119208  1
  K  K133  1  0.51140870  0.20623585  0.36488202  1
  K  K134  1  0.48574758  0.28279685  0.61375149  1
  K  K135  1  0.48738382  0.30491539  0.87673572  1
  K  K136  1  0.25121758  0.46362667  0.11050042  1
  K  K137  1  0.25472849  0.44882517  0.38125001  1
  K  K138  1  0.27341237  0.52834046  0.62313372  1
  K  K139  1  0.21833371  0.54715426  0.88225120  1
  K  K140  1  0.00675326  0.73294622  0.12702486  1
  K  K141  1  0.01249591  0.69229650  0.37497931  1
  K  K142  1  0.99221239  0.77863800  0.61300329  1
  K  K143  1  0.02332431  0.78900154  0.87112397  1
  K  K144  1  0.75560034  0.53689484  0.13749793  1
  K  K145  1  0.75098218  0.47180173  0.36261085  1
  K  K146  1  0.76844111  0.52368183  0.61266198  1
  K  K147  1  0.75213026  0.49126044  0.84210706  1
  K  K148  1  0.50602928  0.77295565  0.12781740  1
  K  K149  1  0.48995758  0.71300027  0.36983804  1
  K  K150  1  0.48118696  0.77390027  0.61239401  1
  K  K151  1  0.50091191  0.78788923  0.87836407  1
  K  K152  1  0.24699957  0.97849358  0.12761467  1
  K  K153  1  0.27134488  0.98839302  0.37832884  1
  K  K154  1  0.25170817  0.03381104  0.62837822  1
  K  K155  1  0.19838437  0.04762054  0.86383366  1
  K  K156  1  0.76647082  0.03163735  0.14578801  1
  K  K157  1  0.75910524  0.95272169  0.37253054  1
  K  K158  1  0.77905771  0.02932964  0.60887298  1
  K  K159  1  0.75502142  0.01317224  0.86769883  1
