# generated using pymatgen
data_KInCl3
_symmetry_space_group_name_H-M   'P 1'
_cell_length_a   15.33945549
_cell_length_b   15.33945549
_cell_length_c   21.69326700
_cell_angle_alpha   90.00000000
_cell_angle_beta   90.00000000
_cell_angle_gamma   90.00000000
_symmetry_Int_Tables_number   1
_chemical_formula_structural   KInCl3
_chemical_formula_sum   'K32 In32 Cl96'
_cell_volume   5104.40175129
_cell_formula_units_Z   32
loop_
 _symmetry_equiv_pos_site_id
 _symmetry_equiv_pos_as_xyz
  1  'x, y, z'
loop_
 _atom_site_type_symbol
 _atom_site_label
 _atom_site_symmetry_multiplicity
 _atom_site_fract_x
 _atom_site_fract_y
 _atom_site_fract_z
 _atom_site_occupancy
  K  K0  1  0.94617147  0.01164266  0.98554660  1
  K  K1  1  0.98004374  0.99962697  0.25338359  1
  K  K2  1  0.02266744  0.03967594  0.49509203  1
  K  K3  1  0.02547092  0.03777607  0.75821968  1
  K  K4  1  0.50746185  0.01687914  0.01997453  1
  K  K5  1  0.49422433  0.00118039  0.26266693  1
  K  K6  1  0.49100700  0.00205824  0.51375435  1
  K  K7  1  0.52076660  0.01634274  0.74898103  1
  K  K8  1  0.24220979  0.25554964  0.00776112  1
  K  K9  1  0.25387251  0.26611285  0.22610561  1
  K  K10  1  0.26466466  0.26269160  0.48830558  1
  K  K11  1  0.27876214  0.21722272  0.73879636  1
  K  K12  1  0.02140024  0.50529293  0.03349990  1
  K  K13  1  0.98346952  0.50106823  0.26339936  1
  K  K14  1  0.97701613  0.51032996  0.53193515  1
  K  K15  1  0.00723623  0.47598270  0.76359656  1
  K  K16  1  0.71248145  0.26243876  0.99193990  1
  K  K17  1  0.74031630  0.28395404  0.28768835  1
  K  K18  1  0.72344357  0.22883864  0.52261849  1
  K  K19  1  0.76165620  0.23704727  0.76004172  1
  K  K20  1  0.48089930  0.47538748  0.00660483  1
  K  K21  1  0.48695819  0.53156219  0.25534226  1
  K  K22  1  0.53184506  0.52432153  0.47947741  1
  K  K23  1  0.52906866  0.50854414  0.73363174  1
  K  K24  1  0.26628427  0.74770319  0.01883874  1
  K  K25  1  0.22532314  0.72102940  0.25565192  1
  K  K26  1  0.24206452  0.69907935  0.50446730  1
  K  K27  1  0.26086090  0.73688842  0.75456747  1
  K  K28  1  0.71872765  0.72918260  0.98755447  1
  K  K29  1  0.72623012  0.71505360  0.26109290  1
  K  K30  1  0.77275963  0.75938095  0.47447127  1
  K  K31  1  0.78811820  0.75066372  0.76712590  1
  In  In32  1  0.99758147  0.23298054  0.12610521  1
  In  In33  1  0.99790452  0.27305118  0.38389766  1
  In  In34  1  0.99411167  0.25625689  0.62037119  1
  In  In35  1  0.01263847  0.25245825  0.88437103  1
  In  In36  1  0.51174794  0.24286451  0.13792594  1
  In  In37  1  0.49719860  0.25936869  0.37210800  1
  In  In38  1  0.49870346  0.25969361  0.62096827  1
  In  In39  1  0.49346203  0.25522113  0.87169443  1
  In  In40  1  0.25063053  0.50293456  0.12186529  1
  In  In41  1  0.24767677  0.48749983  0.37519373  1
  In  In42  1  0.24844865  0.48479279  0.64441743  1
  In  In43  1  0.24969503  0.49108265  0.86964688  1
  In  In44  1  0.00246060  0.75249646  0.12388636  1
  In  In45  1  0.02049748  0.76121399  0.38193294  1
  In  In46  1  0.00782181  0.76736307  0.63314684  1
  In  In47  1  0.01100445  0.75099217  0.88447425  1
  In  In48  1  0.75396891  0.49534458  0.10639525  1
  In  In49  1  0.76326420  0.49369550  0.37738728  1
  In  In50  1  0.74758842  0.51255804  0.62511043  1
  In  In51  1  0.73982670  0.49002314  0.86894714  1
  In  In52  1  0.50632235  0.75061248  0.12516860  1
  In  In53  1  0.50265471  0.76666587  0.37974224  1
  In  In54  1  0.50943371  0.75762976  0.63413339  1
  In  In55  1  0.47341097  0.74382675  0.87136725  1
  In  In56  1  0.26135625  0.99340281  0.14014269  1
  In  In57  1  0.25469064  0.00480921  0.36675765  1
  In  In58  1  0.25226757  0.97495581  0.61550998  1
  In  In59  1  0.24053384  0.99615769  0.88910843  1
  In  In60  1  0.75586284  0.96074343  0.12230521  1
  In  In61  1  0.75582233  0.01249270  0.37248582  1
  In  In62  1  0.75316705  0.99642580  0.62224880  1
  In  In63  1  0.72515202  0.99642441  0.87869435  1
  Cl  Cl64  1  0.04716821  0.18359107  0.00408827  1
  Cl  Cl65  1  0.95725799  0.29391968  0.27105688  1
  Cl  Cl66  1  0.05305679  0.25129480  0.49942422  1
  Cl  Cl67  1  0.95663466  0.26562335  0.73422013  1
  Cl  Cl68  1  0.50435856  0.21909320  0.98696495  1
  Cl  Cl69  1  0.52448270  0.33075221  0.26659292  1
  Cl  Cl70  1  0.47441847  0.20155111  0.48070720  1
  Cl  Cl71  1  0.48627044  0.30498399  0.76119061  1
  Cl  Cl72  1  0.29187601  0.55202793  0.97370634  1
  Cl  Cl73  1  0.28692977  0.47071528  0.26179572  1
  Cl  Cl74  1  0.21136915  0.48804866  0.48808509  1
  Cl  Cl75  1  0.21316641  0.40677314  0.77237010  1
  Cl  Cl76  1  0.06577216  0.69948974  0.00448057  1
  Cl  Cl77  1  0.03374020  0.79860048  0.26951501  1
  Cl  Cl78  1  0.02634129  0.69926116  0.49003797  1
  Cl  Cl79  1  0.98741839  0.83070307  0.73698018  1
  Cl  Cl80  1  0.70905153  0.52787374  0.99003925  1
  Cl  Cl81  1  0.77660628  0.48137170  0.22099273  1
  Cl  Cl82  1  0.76155438  0.55938456  0.49540739  1
  Cl  Cl83  1  0.72380940  0.43897838  0.75874097  1
  Cl  Cl84  1  0.49519868  0.69301865  0.01624303  1
  Cl  Cl85  1  0.53853086  0.80374195  0.23172667  1
  Cl  Cl86  1  0.54357494  0.73060678  0.52090575  1
  Cl  Cl87  1  0.45073157  0.81049897  0.73783539  1
  Cl  Cl88  1  0.27554205  0.04520315  0.03004890  1
  Cl  Cl89  1  0.29530218  0.91987246  0.24223611  1
  Cl  Cl90  1  0.23644704  0.04913140  0.51341894  1
  Cl  Cl91  1  0.21793680  0.94960854  0.72502552  1
  Cl  Cl92  1  0.72587641  0.04916972  0.99119881  1
  Cl  Cl93  1  0.79238769  0.90039826  0.22489672  1
  Cl  Cl94  1  0.69925994  0.02794095  0.49399530  1
  Cl  Cl95  1  0.71797596  0.96198291  0.76526934  1
  Cl  Cl96  1  0.14351916  0.09374718  0.18114552  1
  Cl  Cl97  1  0.06370624  0.12646701  0.36215213  1
  Cl  Cl98  1  0.12281090  0.15727283  0.64428328  1
  Cl  Cl99  1  0.14954455  0.15350892  0.83970055  1
  Cl  Cl100  1  0.63549775  0.06300075  0.14649145  1
  Cl  Cl101  1  0.60482851  0.13982710  0.33848391  1
  Cl  Cl102  1  0.65797572  0.14936844  0.65257736  1
  Cl  Cl103  1  0.63402126  0.15945986  0.85443706  1
  Cl  Cl104  1  0.37580470  0.35208892  0.10886911  1
  Cl  Cl105  1  0.39295977  0.39270695  0.40632149  1
  Cl  Cl106  1  0.32101561  0.32867862  0.61762399  1
  Cl  Cl107  1  0.35970133  0.35464016  0.90404936  1
  Cl  Cl108  1  0.09422992  0.59935928  0.16373151  1
  Cl  Cl109  1  0.12245115  0.59173994  0.34722562  1
  Cl  Cl110  1  0.14661113  0.68538570  0.63658486  1
  Cl  Cl111  1  0.14083589  0.60714472  0.83542023  1
  Cl  Cl112  1  0.86188922  0.38046434  0.07382503  1
  Cl  Cl113  1  0.96142856  0.42806069  0.40452290  1
  Cl  Cl114  1  0.86448143  0.34925648  0.58592566  1
  Cl  Cl115  1  0.82783826  0.35986505  0.89544603  1
  Cl  Cl116  1  0.61965326  0.62386289  0.14645585  1
  Cl  Cl117  1  0.61533069  0.60038986  0.35412157  1
  Cl  Cl118  1  0.63847228  0.67716265  0.67707247  1
  Cl  Cl119  1  0.64081568  0.61752848  0.85245296  1
  Cl  Cl120  1  0.40130430  0.87564549  0.09493869  1
  Cl  Cl121  1  0.41982783  0.93909505  0.39057777  1
  Cl  Cl122  1  0.34498215  0.85158895  0.57889199  1
  Cl  Cl123  1  0.30654251  0.80788573  0.88673562  1
  Cl  Cl124  1  0.84992592  0.86436000  0.05865685  1
  Cl  Cl125  1  0.93378838  0.89533702  0.40745979  1
  Cl  Cl126  1  0.88308190  0.83801789  0.58284001  1
  Cl  Cl127  1  0.81093500  0.85723657  0.89541591  1
  Cl  Cl128  1  0.87266941  0.07518360  0.12777612  1
  Cl  Cl129  1  0.84890386  0.21218203  0.40710539  1
  Cl  Cl130  1  0.90418659  0.12107270  0.59922081  1
  Cl  Cl131  1  0.85742425  0.09283966  0.85972206  1
  Cl  Cl132  1  0.38129275  0.10406328  0.16523785  1
  Cl  Cl133  1  0.36498426  0.17739722  0.33434097  1
  Cl  Cl134  1  0.37596070  0.07554792  0.64374379  1
  Cl  Cl135  1  0.40076726  0.12634397  0.84660726  1
  Cl  Cl136  1  0.13333317  0.35962534  0.11715545  1
  Cl  Cl137  1  0.16608785  0.33741213  0.36069193  1
  Cl  Cl138  1  0.07790739  0.40015300  0.63060707  1
  Cl  Cl139  1  0.13009172  0.40434515  0.92592844  1
  Cl  Cl140  1  0.85015998  0.62466489  0.09698603  1
  Cl  Cl141  1  0.89007912  0.66480401  0.35593388  1
  Cl  Cl142  1  0.92525049  0.62780441  0.65637637  1
  Cl  Cl143  1  0.87185870  0.58554110  0.85416006  1
  Cl  Cl144  1  0.62701590  0.39250548  0.10362830  1
  Cl  Cl145  1  0.62568054  0.34958221  0.41458190  1
  Cl  Cl146  1  0.58470815  0.42628688  0.60129503  1
  Cl  Cl147  1  0.59206264  0.38927051  0.89788022  1
  Cl  Cl148  1  0.38052368  0.65861169  0.16321808  1
  Cl  Cl149  1  0.35056166  0.61623746  0.38460999  1
  Cl  Cl150  1  0.40390492  0.63343114  0.63432991  1
  Cl  Cl151  1  0.37439048  0.57172278  0.81786835  1
  Cl  Cl152  1  0.16119671  0.87139453  0.11148726  1
  Cl  Cl153  1  0.17389080  0.81808504  0.39595523  1
  Cl  Cl154  1  0.10222753  0.90175887  0.58742156  1
  Cl  Cl155  1  0.06934337  0.92751413  0.89034732  1
  Cl  Cl156  1  0.63020904  0.85454499  0.08116230  1
  Cl  Cl157  1  0.66781878  0.84965935  0.37207400  1
  Cl  Cl158  1  0.57544292  0.90634672  0.62437196  1
  Cl  Cl159  1  0.57533380  0.93168193  0.89426857  1
