# generated using pymatgen
data_KMgBr3
_symmetry_space_group_name_H-M   'P 1'
_cell_length_a   15.15501800
_cell_length_b   15.15501800
_cell_length_c   21.43243300
_cell_angle_alpha   90.00000000
_cell_angle_beta   90.00000000
_cell_angle_gamma   90.00000000
_symmetry_Int_Tables_number   1
_chemical_formula_structural   KMgBr3
_chemical_formula_sum   'K32 Mg32 Br96'
_cell_volume   4922.48484870
_cell_formula_units_Z   32
loop_
 _symmetry_equiv_pos_site_id
 _symmetry_equiv_pos_as_xyz
  1  'x, y, z'
loop_
 _atom_site_type_symbol
 _atom_site_label
 _atom_site_symmetry_multiplicity
 _atom_site_fract_x
 _atom_site_fract_y
 _atom_site_fract_z
 _atom_site_occupancy
  Br  Br0  1  0.99893279  0.28591306  0.99993453  1
  Br  Br1  1  0.00060046  0.21382715  0.24996593  1
  Br  Br2  1  0.99527809  0.28078004  0.49986681  1
  Br  Br3  1  0.00363921  0.21811069  0.75019511  1
  Br  Br4  1  0.54035361  0.24795559  0.00087002  1
  Br  Br5  1  0.45950018  0.25137426  0.24930606  1
  Br  Br6  1  0.53522524  0.25172700  0.49941536  1
  Br  Br7  1  0.46440456  0.24793906  0.75032914  1
  Br  Br8  1  0.21370608  0.50154125  0.99974816  1
  Br  Br9  1  0.28603369  0.49800525  0.25027199  1
  Br  Br10  1  0.21518345  0.50972467  0.50010916  1
  Br  Br11  1  0.28419872  0.48997955  0.74986665  1
  Br  Br12  1  0.04024837  0.74791290  0.00061890  1
  Br  Br13  1  0.95945995  0.75119501  0.24915188  1
  Br  Br14  1  0.03509109  0.75189688  0.49964383  1
  Br  Br15  1  0.96432797  0.74748100  0.75064288  1
  Br  Br16  1  0.75118254  0.46009524  0.00096649  1
  Br  Br17  1  0.74855626  0.53908072  0.24920849  1
  Br  Br18  1  0.74385104  0.46762114  0.49925639  1
  Br  Br19  1  0.75579425  0.53169127  0.75080025  1
  Br  Br20  1  0.49921935  0.78566499  0.00002420  1
  Br  Br21  1  0.50040451  0.71377401  0.25002155  1
  Br  Br22  1  0.49572392  0.78183134  0.49972767  1
  Br  Br23  1  0.50430272  0.71797975  0.75017917  1
  Br  Br24  1  0.25110451  0.96020335  0.00093051  1
  Br  Br25  1  0.24812222  0.03930977  0.24891548  1
  Br  Br26  1  0.24317722  0.96788288  0.49928344  1
  Br  Br27  1  0.25608734  0.03136473  0.75075894  1
  Br  Br28  1  0.71362104  0.00149816  0.99982023  1
  Br  Br29  1  0.78612032  0.99823716  0.25008355  1
  Br  Br30  1  0.71606126  0.00686657  0.49998208  1
  Br  Br31  1  0.78281427  0.99169936  0.75007187  1
  Br  Br32  1  0.10593511  0.10636312  0.10447940  1
  Br  Br33  1  0.14129578  0.14453972  0.39065658  1
  Br  Br34  1  0.14371352  0.14319219  0.61193938  1
  Br  Br35  1  0.14601580  0.14127413  0.89292437  1
  Br  Br36  1  0.60632911  0.10596979  0.14555755  1
  Br  Br37  1  0.64036696  0.14479321  0.35490036  1
  Br  Br38  1  0.64199596  0.14288222  0.64218346  1
  Br  Br39  1  0.64406708  0.14095998  0.85650303  1
  Br  Br40  1  0.39348317  0.39367615  0.10448593  1
  Br  Br41  1  0.35484763  0.35848923  0.39420397  1
  Br  Br42  1  0.35722252  0.35682109  0.60668505  1
  Br  Br43  1  0.35917974  0.35434711  0.89546759  1
  Br  Br44  1  0.10643313  0.60597875  0.14551857  1
  Br  Br45  1  0.14060483  0.64507514  0.35451450  1
  Br  Br46  1  0.14225700  0.64284976  0.64338079  1
  Br  Br47  1  0.14488887  0.64113268  0.85603281  1
  Br  Br48  1  0.89384097  0.39342694  0.14544808  1
  Br  Br49  1  0.85358415  0.35809368  0.35706764  1
  Br  Br50  1  0.85530747  0.35602393  0.63853174  1
  Br  Br51  1  0.85804308  0.35484925  0.85892675  1
  Br  Br52  1  0.60604737  0.60631222  0.10459369  1
  Br  Br53  1  0.64152909  0.64451601  0.39108345  1
  Br  Br54  1  0.64416242  0.64316290  0.61160646  1
  Br  Br55  1  0.64631651  0.64093696  0.89341962  1
  Br  Br56  1  0.39373210  0.89344923  0.14542177  1
  Br  Br57  1  0.35333217  0.85854191  0.35692380  1
  Br  Br58  1  0.35561919  0.85642014  0.63826754  1
  Br  Br59  1  0.35831769  0.85496095  0.85912490  1
  Br  Br60  1  0.89319060  0.89354542  0.10430884  1
  Br  Br61  1  0.85478821  0.85784088  0.39325511  1
  Br  Br62  1  0.85679451  0.85588620  0.60826879  1
  Br  Br63  1  0.85901928  0.85432808  0.89531844  1
  Br  Br64  1  0.85417603  0.14549892  0.11008056  1
  Br  Br65  1  0.88870391  0.11010882  0.39494334  1
  Br  Br66  1  0.89340444  0.10570124  0.60783239  1
  Br  Br67  1  0.89428048  0.10545296  0.89219384  1
  Br  Br68  1  0.35949452  0.14040941  0.10345382  1
  Br  Br69  1  0.39090698  0.10835392  0.39073069  1
  Br  Br70  1  0.39421978  0.10524640  0.60909069  1
  Br  Br71  1  0.40038928  0.09988358  0.89176303  1
  Br  Br72  1  0.14554861  0.35424970  0.13986721  1
  Br  Br73  1  0.10504704  0.39412775  0.35791724  1
  Br  Br74  1  0.10588292  0.39349012  0.64201316  1
  Br  Br75  1  0.11072057  0.38897518  0.85491309  1
  Br  Br76  1  0.85949272  0.64031117  0.10345817  1
  Br  Br77  1  0.89135982  0.60791511  0.39067593  1
  Br  Br78  1  0.89507642  0.60426118  0.60921654  1
  Br  Br79  1  0.90087205  0.59940002  0.89167919  1
  Br  Br80  1  0.64032177  0.35929407  0.14657671  1
  Br  Br81  1  0.59901105  0.39953104  0.35832245  1
  Br  Br82  1  0.60492802  0.39460039  0.64064315  1
  Br  Br83  1  0.60853437  0.39119338  0.85930790  1
  Br  Br84  1  0.35424417  0.64551537  0.11013148  1
  Br  Br85  1  0.38895051  0.61061085  0.39511102  1
  Br  Br86  1  0.39369115  0.60618140  0.60777613  1
  Br  Br87  1  0.39469963  0.60519544  0.89220265  1
  Br  Br88  1  0.13998148  0.85943575  0.14633619  1
  Br  Br89  1  0.09879918  0.89952703  0.35828913  1
  Br  Br90  1  0.10466858  0.89460360  0.64075303  1
  Br  Br91  1  0.10811046  0.89162882  0.85941394  1
  Br  Br92  1  0.64552215  0.85423230  0.13988816  1
  Br  Br93  1  0.60490604  0.89415038  0.35720434  1
  Br  Br94  1  0.60583741  0.89352914  0.64222615  1
  Br  Br95  1  0.61069224  0.88879717  0.85508975  1
  K  K96  1  0.01714974  0.98205340  0.99012641  1
  K  K97  1  0.00739214  0.99224480  0.23203859  1
  K  K98  1  0.00782630  0.98296256  0.49880519  1
  K  K99  1  0.99817422  0.00205950  0.75120571  1
  K  K100  1  0.49234541  0.00734758  0.01796824  1
  K  K101  1  0.48193258  0.01776868  0.25974355  1
  K  K102  1  0.50082289  0.99805853  0.49903980  1
  K  K103  1  0.49052154  0.01539173  0.75136275  1
  K  K104  1  0.23438345  0.26475647  0.00866240  1
  K  K105  1  0.23781712  0.26214740  0.26667302  1
  K  K106  1  0.26489635  0.22982680  0.50092966  1
  K  K107  1  0.23429464  0.26275816  0.74801951  1
  K  K108  1  0.99244036  0.50739604  0.01798454  1
  K  K109  1  0.98258110  0.51734364  0.25984078  1
  K  K110  1  0.00014681  0.49621245  0.49839024  1
  K  K111  1  0.99037827  0.51488933  0.75134453  1
  K  K112  1  0.76195039  0.23741174  0.98332009  1
  K  K113  1  0.76517337  0.23468931  0.24142817  1
  K  K114  1  0.76451952  0.23590230  0.50151797  1
  K  K115  1  0.73288485  0.26921167  0.74924448  1
  K  K116  1  0.51745363  0.48193999  0.99015956  1
  K  K117  1  0.50728834  0.49222550  0.23211059  1
  K  K118  1  0.50882849  0.48400161  0.49882009  1
  K  K119  1  0.49919706  0.50204652  0.75120509  1
  K  K120  1  0.26200821  0.73739859  0.98330402  1
  K  K121  1  0.26493775  0.73528643  0.24124319  1
  K  K122  1  0.26518757  0.73673294  0.50184263  1
  K  K123  1  0.23294620  0.77066633  0.74930336  1
  K  K124  1  0.73466559  0.76464616  0.00875988  1
  K  K125  1  0.73790669  0.76174083  0.26645451  1
  K  K126  1  0.76627864  0.73016482  0.50081177  1
  K  K127  1  0.73435502  0.76296207  0.74802180  1
  Mg  Mg128  1  0.99980370  0.24987164  0.12495139  1
  Mg  Mg129  1  0.99702547  0.24946443  0.37499070  1
  Mg  Mg130  1  0.99954632  0.24973599  0.62513042  1
  Mg  Mg131  1  0.00229513  0.24977415  0.87496454  1
  Mg  Mg132  1  0.49995739  0.24980035  0.12500338  1
  Mg  Mg133  1  0.50010634  0.25314112  0.37371201  1
  Mg  Mg134  1  0.49951838  0.24994685  0.62489936  1
  Mg  Mg135  1  0.49925617  0.24627596  0.87648366  1
  Mg  Mg136  1  0.24992718  0.49982834  0.12497192  1
  Mg  Mg137  1  0.24912299  0.50241408  0.37549335  1
  Mg  Mg138  1  0.24971977  0.49985455  0.62499479  1
  Mg  Mg139  1  0.25056746  0.49701052  0.87449644  1
  Mg  Mg140  1  0.99984985  0.74974317  0.12493145  1
  Mg  Mg141  1  0.00037465  0.75282935  0.37353923  1
  Mg  Mg142  1  0.99982670  0.74929808  0.62516804  1
  Mg  Mg143  1  0.99938262  0.74603421  0.87635819  1
  Mg  Mg144  1  0.74988473  0.49975804  0.12500684  1
  Mg  Mg145  1  0.74510439  0.49894218  0.37341873  1
  Mg  Mg146  1  0.74991372  0.49971316  0.62502868  1
  Mg  Mg147  1  0.75454527  0.50035368  0.87673440  1
  Mg  Mg148  1  0.49988230  0.74983341  0.12501950  1
  Mg  Mg149  1  0.49725185  0.74978168  0.37504301  1
  Mg  Mg150  1  0.49986556  0.74971820  0.62491883  1
  Mg  Mg151  1  0.50252705  0.74947513  0.87498126  1
  Mg  Mg152  1  0.24982214  0.99992804  0.12491051  1
  Mg  Mg153  1  0.24493351  0.99893329  0.37330459  1
  Mg  Mg154  1  0.24959816  0.99969756  0.62496789  1
  Mg  Mg155  1  0.25435977  0.00045399  0.87675409  1
  Mg  Mg156  1  0.74987903  0.99979393  0.12498085  1
  Mg  Mg157  1  0.74891387  0.00201469  0.37514783  1
  Mg  Mg158  1  0.74963273  0.99966594  0.62502889  1
  Mg  Mg159  1  0.75035552  0.99688003  0.87478833  1
