# generated using pymatgen
data_KMgCl3
_symmetry_space_group_name_H-M   'P 1'
_cell_length_a   14.19484195
_cell_length_b   14.19484195
_cell_length_c   20.07453800
_cell_angle_alpha   90.00000000
_cell_angle_beta   90.00000000
_cell_angle_gamma   90.00000000
_symmetry_Int_Tables_number   1
_chemical_formula_structural   KMgCl3
_chemical_formula_sum   'K32 Mg32 Cl96'
_cell_volume   4044.88968447
_cell_formula_units_Z   32
loop_
 _symmetry_equiv_pos_site_id
 _symmetry_equiv_pos_as_xyz
  1  'x, y, z'
loop_
 _atom_site_type_symbol
 _atom_site_label
 _atom_site_symmetry_multiplicity
 _atom_site_fract_x
 _atom_site_fract_y
 _atom_site_fract_z
 _atom_site_occupancy
  Cl  Cl0  1  0.99896552  0.22039189  0.00032615  1
  Cl  Cl1  1  0.00190782  0.28258727  0.25029043  1
  Cl  Cl2  1  -0.00128570  0.21937772  0.49978180  1
  Cl  Cl3  1  -0.00029335  0.28216496  0.74980303  1
  Cl  Cl4  1  0.53156625  0.25256847  -0.00044109  1
  Cl  Cl5  1  0.46989919  0.25140199  0.25002458  1
  Cl  Cl6  1  0.53098926  0.25119046  0.50065408  1
  Cl  Cl7  1  0.46728606  0.24901274  0.75028445  1
  Cl  Cl8  1  0.25101786  0.53246269  -0.00033811  1
  Cl  Cl9  1  0.25007535  0.47158522  0.25001220  1
  Cl  Cl10  1  0.24950663  0.53268494  0.50051933  1
  Cl  Cl11  1  0.24779448  0.46926243  0.75041073  1
  Cl  Cl12  1  0.03153598  0.75250228  -0.00042166  1
  Cl  Cl13  1  -0.02981231  0.75174144  0.25003167  1
  Cl  Cl14  1  0.03108544  0.75129565  0.50072128  1
  Cl  Cl15  1  0.96722404  0.74917921  0.75032590  1
  Cl  Cl16  1  0.71918057  0.50019781  0.00025929  1
  Cl  Cl17  1  0.78039889  0.50412266  0.25025572  1
  Cl  Cl18  1  0.71777080  0.49993549  0.49974598  1
  Cl  Cl19  1  0.78075058  0.50088313  0.74976652  1
  Cl  Cl20  1  0.49900993  0.72037065  0.00032168  1
  Cl  Cl21  1  0.50148405  0.78251301  0.25029529  1
  Cl  Cl22  1  0.49886242  0.71954844  0.49973366  1
  Cl  Cl23  1  0.49982911  0.78183292  0.74976234  1
  Cl  Cl24  1  0.21903435  0.00032063  0.00026946  1
  Cl  Cl25  1  0.28091920  0.00313877  0.25033417  1
  Cl  Cl26  1  0.21799285  0.00044022  0.49988471  1
  Cl  Cl27  1  0.28038881  0.00106039  0.74984528  1
  Cl  Cl28  1  0.75102976  0.03224443  -0.00038348  1
  Cl  Cl29  1  0.75028883  -0.02834839  0.25004774  1
  Cl  Cl30  1  0.74980363  0.03228930  0.50066796  1
  Cl  Cl31  1  0.74753599  -0.03138097  0.75042406  1
  Cl  Cl32  1  0.11631633  0.11759378  0.14301853  1
  Cl  Cl33  1  0.11270927  0.11425324  0.35768578  1
  Cl  Cl34  1  0.12654461  0.12807834  0.63950141  1
  Cl  Cl35  1  0.14049040  0.14197655  0.86272099  1
  Cl  Cl36  1  0.61445555  0.11582087  0.13786005  1
  Cl  Cl37  1  0.61097412  0.11245466  0.36302843  1
  Cl  Cl38  1  0.62419482  0.12540515  0.64318085  1
  Cl  Cl39  1  0.63841010  0.13965693  0.85762620  1
  Cl  Cl40  1  0.38982812  0.39119754  0.11105044  1
  Cl  Cl41  1  0.39049578  0.39215550  0.38789676  1
  Cl  Cl42  1  0.37199396  0.37372060  0.61017005  1
  Cl  Cl43  1  0.36028286  0.36167949  0.89123221  1
  Cl  Cl44  1  0.11416690  0.61555486  0.13801598  1
  Cl  Cl45  1  0.11080032  0.61255073  0.36276172  1
  Cl  Cl46  1  0.12395155  0.62546507  0.64325291  1
  Cl  Cl47  1  0.13843990  0.63988463  0.85776885  1
  Cl  Cl48  1  0.88590677  0.38738434  0.11015350  1
  Cl  Cl49  1  0.88763261  0.38951326  0.39104689  1
  Cl  Cl50  1  0.86937415  0.37077196  0.60796264  1
  Cl  Cl51  1  0.85662024  0.35780602  0.88715299  1
  Cl  Cl52  1  0.61583865  0.61759471  0.14287200  1
  Cl  Cl53  1  0.61238374  0.61419767  0.35768339  1
  Cl  Cl54  1  0.62609356  0.62740863  0.63943377  1
  Cl  Cl55  1  0.64059040  0.64178671  0.86275033  1
  Cl  Cl56  1  0.38607898  0.88749541  0.10973127  1
  Cl  Cl57  1  0.38800892  0.88969534  0.39150147  1
  Cl  Cl58  1  0.36968286  0.87118368  0.60826689  1
  Cl  Cl59  1  0.35655090  0.85780825  0.88704029  1
  Cl  Cl60  1  0.88997595  0.89137376  0.11115275  1
  Cl  Cl61  1  0.89052866  0.89213044  0.38808985  1
  Cl  Cl62  1  0.87218863  0.87360908  0.61029337  1
  Cl  Cl63  1  0.86024680  0.86158463  0.89133353  1
  Cl  Cl64  1  0.86465329  0.13805965  0.14062133  1
  Cl  Cl65  1  0.86188244  0.13989214  0.36025136  1
  Cl  Cl66  1  0.87595203  0.12318698  0.64195854  1
  Cl  Cl67  1  0.88991368  0.11013159  0.85892655  1
  Cl  Cl68  1  0.36451644  0.13835369  0.10854958  1
  Cl  Cl69  1  0.36117438  0.14081768  0.39095165  1
  Cl  Cl70  1  0.37625285  0.12293672  0.60798134  1
  Cl  Cl71  1  0.38987526  0.10982987  0.89101624  1
  Cl  Cl72  1  0.13705992  0.36561331  0.10869195  1
  Cl  Cl73  1  0.13873565  0.36297559  0.39112044  1
  Cl  Cl74  1  0.12145113  0.37769857  0.60795432  1
  Cl  Cl75  1  0.10841971  0.39151854  0.89127494  1
  Cl  Cl76  1  0.86435946  0.63850780  0.10855284  1
  Cl  Cl77  1  0.86116765  0.64075119  0.39107205  1
  Cl  Cl78  1  0.87598676  0.62291940  0.60794204  1
  Cl  Cl79  1  0.89014466  0.60964247  0.89101865  1
  Cl  Cl80  1  0.63669852  0.36601136  0.14081165  1
  Cl  Cl81  1  0.63831071  0.36329666  0.36014512  1
  Cl  Cl82  1  0.62185649  0.37721279  0.64192559  1
  Cl  Cl83  1  0.60898856  0.39120341  0.85894762  1
  Cl  Cl84  1  0.36442408  0.63807324  0.14053753  1
  Cl  Cl85  1  0.36165990  0.64001857  0.36033646  1
  Cl  Cl86  1  0.37565793  0.62347510  0.64144286  1
  Cl  Cl87  1  0.39011302  0.61013080  0.85920595  1
  Cl  Cl88  1  0.13695949  0.86578461  0.14060902  1
  Cl  Cl89  1  0.13835499  0.86340260  0.36055164  1
  Cl  Cl90  1  0.12200981  0.87731501  0.64181806  1
  Cl  Cl91  1  0.10885903  0.89133393  0.85905976  1
  Cl  Cl92  1  0.63704498  0.86563463  0.10891608  1
  Cl  Cl93  1  0.63900708  0.86280433  0.39091166  1
  Cl  Cl94  1  0.62173092  0.87737161  0.60800463  1
  Cl  Cl95  1  0.60831945  0.89144802  0.89126955  1
  K  K96  1  -0.00755346  -0.00634414  -0.01154885  1
  K  K97  1  -0.00983694  -0.00899965  0.24970757  1
  K  K98  1  -0.00567272  -0.00432590  0.50644400  1
  K  K99  1  -0.00792363  -0.00676600  0.74465002  1
  K  K100  1  0.51044732  0.01231196  0.00756541  1
  K  K101  1  0.50286132  0.00463445  0.24945945  1
  K  K102  1  0.50920463  0.01086742  0.49907000  1
  K  K103  1  0.50831610  0.00982134  0.75782082  1
  K  K104  1  0.23853385  0.23994592  -0.00489522  1
  K  K105  1  0.23978940  0.24131927  0.25227925  1
  K  K106  1  0.24059906  0.24231658  0.50575183  1
  K  K107  1  0.24523446  0.24719600  0.74540663  1
  K  K108  1  0.01055703  0.51221799  0.00772495  1
  K  K109  1  0.00235149  0.50461366  0.24949228  1
  K  K110  1  0.00905599  0.51068497  0.49901615  1
  K  K111  1  0.00861623  0.50973715  0.75853338  1
  K  K112  1  0.75695365  0.25745373  0.01030315  1
  K  K113  1  0.75543682  0.25671677  0.24936330  1
  K  K114  1  0.75826305  0.25935620  0.49162903  1
  K  K115  1  0.75942266  0.26118475  0.74988205  1
  K  K116  1  0.49260793  0.49372415  -0.01120900  1
  K  K117  1  0.49009375  0.49091012  0.24958142  1
  K  K118  1  0.49409297  0.49584597  0.50616145  1
  K  K119  1  0.49147933  0.49323556  0.74462648  1
  K  K120  1  0.25705777  0.75749747  0.01023818  1
  K  K121  1  0.25261345  0.75405653  0.24965836  1
  K  K122  1  0.25838713  0.76019443  0.49217332  1
  K  K123  1  0.25976997  0.76089864  0.75002615  1
  K  K124  1  0.73837919  0.74016124  -0.00487325  1
  K  K125  1  0.73980612  0.74174808  0.25178045  1
  K  K126  1  0.74088134  0.74275647  0.50559002  1
  K  K127  1  0.74495587  0.74656584  0.74502502  1
  Mg  Mg128  1  0.00140970  0.25098441  0.12528297  1
  Mg  Mg129  1  0.00069252  0.25120412  0.37512926  1
  Mg  Mg130  1  -0.00204509  0.25149651  0.62498467  1
  Mg  Mg131  1  -0.00128160  0.25114552  0.87503185  1
  Mg  Mg132  1  0.49946853  0.25312857  0.12480088  1
  Mg  Mg133  1  0.49936054  0.25202667  0.37540209  1
  Mg  Mg134  1  0.49993559  0.24922360  0.62535006  1
  Mg  Mg135  1  0.49990941  0.25040935  0.87496537  1
  Mg  Mg136  1  0.25164727  0.50061454  0.12485039  1
  Mg  Mg137  1  0.25030582  0.50092731  0.37540536  1
  Mg  Mg138  1  0.24762503  0.50142322  0.62521633  1
  Mg  Mg139  1  0.24913487  0.50118629  0.87512073  1
  Mg  Mg140  1  -0.00058198  0.75326227  0.12473007  1
  Mg  Mg141  1  -0.00067188  0.75203950  0.37554642  1
  Mg  Mg142  1  -0.00008984  0.74916472  0.62544100  1
  Mg  Mg143  1  -0.00015201  0.75044314  0.87502046  1
  Mg  Mg144  1  0.74946460  0.50299116  0.12513422  1
  Mg  Mg145  1  0.74931991  0.50250056  0.37518158  1
  Mg  Mg146  1  0.75000021  0.49933557  0.62495861  1
  Mg  Mg147  1  0.74998026  0.49989349  0.87499327  1
  Mg  Mg148  1  0.50114743  0.75116765  0.12531333  1
  Mg  Mg149  1  0.50054546  0.75127258  0.37503244  1
  Mg  Mg150  1  0.49807657  0.75144265  0.62486167  1
  Mg  Mg151  1  0.49879105  0.75121183  0.87504675  1
  Mg  Mg152  1  0.24971179  0.00276493  0.12521450  1
  Mg  Mg153  1  0.24969015  0.00232880  0.37510924  1
  Mg  Mg154  1  0.25011087  -0.00040620  0.62502738  1
  Mg  Mg155  1  0.24990150  -0.00004288  0.87504823  1
  Mg  Mg156  1  0.75166566  0.00072929  0.12484785  1
  Mg  Mg157  1  0.75038582  0.00087664  0.37537964  1
  Mg  Mg158  1  0.74780545  0.00129597  0.62547262  1
  Mg  Mg159  1  0.74903324  0.00102375  0.87496368  1
