# generated using pymatgen
data_KMgF3
_symmetry_space_group_name_H-M   'P 1'
_cell_length_a   11.44216152
_cell_length_b   11.44216152
_cell_length_c   16.18165900
_cell_angle_alpha   90.00000000
_cell_angle_beta   90.00000000
_cell_angle_gamma   90.00000000
_symmetry_Int_Tables_number   1
_chemical_formula_structural   KMgF3
_chemical_formula_sum   'K32 Mg32 F96'
_cell_volume   2118.55231503
_cell_formula_units_Z   32
loop_
 _symmetry_equiv_pos_site_id
 _symmetry_equiv_pos_as_xyz
  1  'x, y, z'
loop_
 _atom_site_type_symbol
 _atom_site_label
 _atom_site_symmetry_multiplicity
 _atom_site_fract_x
 _atom_site_fract_y
 _atom_site_fract_z
 _atom_site_occupancy
  F  F0  1  0.99946607  0.24943709  0.99980048  1
  F  F1  1  0.99957348  0.24929713  0.24981837  1
  F  F2  1  0.99973239  0.24955697  0.49983180  1
  F  F3  1  0.99968766  0.24959418  0.74982978  1
  F  F4  1  0.49954271  0.24943195  0.99977097  1
  F  F5  1  0.49967114  0.24926629  0.24977322  1
  F  F6  1  0.49988900  0.24942577  0.49977126  1
  F  F7  1  0.49979477  0.24964907  0.74978506  1
  F  F8  1  0.24963997  0.49941946  0.99977206  1
  F  F9  1  0.24957000  0.49911654  0.24978312  1
  F  F10  1  0.24982957  0.49935610  0.49980412  1
  F  F11  1  0.24953141  0.49960374  0.74977068  1
  F  F12  1  0.99958159  0.74945875  0.99978278  1
  F  F13  1  0.99972962  0.74935931  0.24980953  1
  F  F14  1  0.99975162  0.74951575  0.49981746  1
  F  F15  1  0.99988044  0.74957578  0.74981980  1
  F  F16  1  0.74962888  0.49974574  0.99979858  1
  F  F17  1  0.74959966  0.49927093  0.24981754  1
  F  F18  1  0.74981675  0.49958729  0.49983717  1
  F  F19  1  0.74965616  0.49967587  0.74980543  1
  F  F20  1  0.49949403  0.74938256  0.99981066  1
  F  F21  1  0.49957183  0.74914421  0.24979663  1
  F  F22  1  0.49957866  0.74944372  0.49980891  1
  F  F23  1  0.49968116  0.74969965  0.74982314  1
  F  F24  1  0.24957827  0.99951785  0.99979239  1
  F  F25  1  0.24940430  0.99930990  0.24980810  1
  F  F26  1  0.24974002  0.99932631  0.49981562  1
  F  F27  1  0.24970369  0.99984032  0.74982873  1
  F  F28  1  0.74950148  0.99949558  0.99980682  1
  F  F29  1  0.74963604  0.99927488  0.24978971  1
  F  F30  1  0.74968897  0.99934008  0.49982227  1
  F  F31  1  0.74974872  0.99965118  0.74980501  1
  F  F32  1  0.12467094  0.12452129  0.12477003  1
  F  F33  1  0.12459709  0.12425576  0.37490106  1
  F  F34  1  0.12480778  0.12465186  0.62474214  1
  F  F35  1  0.12470214  0.12475646  0.87483250  1
  F  F36  1  0.62467650  0.12447603  0.12479342  1
  F  F37  1  0.62471177  0.12431696  0.37477732  1
  F  F38  1  0.62484351  0.12464143  0.62480574  1
  F  F39  1  0.62471467  0.12469446  0.87477157  1
  F  F40  1  0.37443540  0.37420086  0.12476319  1
  F  F41  1  0.37483441  0.37438207  0.37477347  1
  F  F42  1  0.37493905  0.37472340  0.62479555  1
  F  F43  1  0.37469710  0.37468445  0.87473016  1
  F  F44  1  0.12463794  0.62445702  0.12479713  1
  F  F45  1  0.12470540  0.62425053  0.37483527  1
  F  F46  1  0.12477833  0.62461199  0.62474738  1
  F  F47  1  0.12473943  0.62474675  0.87488427  1
  F  F48  1  0.87442332  0.37431119  0.12476358  1
  F  F49  1  0.87478388  0.37448414  0.37485576  1
  F  F50  1  0.87484055  0.37470074  0.62485717  1
  F  F51  1  0.87470610  0.37478151  0.87485019  1
  F  F52  1  0.62461964  0.62447406  0.12484478  1
  F  F53  1  0.62477959  0.62444725  0.37488765  1
  F  F54  1  0.62477102  0.62469315  0.62484566  1
  F  F55  1  0.62463089  0.62470995  0.87479939  1
  F  F56  1  0.37447579  0.87433166  0.12487117  1
  F  F57  1  0.37476037  0.87441166  0.37475456  1
  F  F58  1  0.37485484  0.87474772  0.62488599  1
  F  F59  1  0.37465502  0.87465946  0.87485264  1
  F  F60  1  0.87446997  0.87429383  0.12479508  1
  F  F61  1  0.87481305  0.87445184  0.37479668  1
  F  F62  1  0.87490282  0.87470925  0.62487637  1
  F  F63  1  0.87474208  0.87473925  0.87480911  1
  F  F64  1  0.87468170  0.12428642  0.12480762  1
  F  F65  1  0.87466552  0.12442614  0.37486521  1
  F  F66  1  0.87478067  0.12465105  0.62481660  1
  F  F67  1  0.87458736  0.12473033  0.87483510  1
  F  F68  1  0.37467733  0.12427568  0.12482669  1
  F  F69  1  0.37470282  0.12438288  0.37479314  1
  F  F70  1  0.37479802  0.12470016  0.62476325  1
  F  F71  1  0.37468011  0.12468680  0.87480880  1
  F  F72  1  0.12441609  0.37450032  0.12477688  1
  F  F73  1  0.12484024  0.37425110  0.37480443  1
  F  F74  1  0.12484687  0.37457576  0.62483836  1
  F  F75  1  0.12461370  0.37470353  0.87484015  1
  F  F76  1  0.87466820  0.62437253  0.12485825  1
  F  F77  1  0.87477921  0.62441354  0.37475272  1
  F  F78  1  0.87477338  0.62472549  0.62486325  1
  F  F79  1  0.87462864  0.62478140  0.87473054  1
  F  F80  1  0.62443743  0.37455047  0.12473368  1
  F  F81  1  0.62480089  0.37437193  0.37482786  1
  F  F82  1  0.62484805  0.37463562  0.62479971  1
  F  F83  1  0.62470025  0.37469082  0.87486883  1
  F  F84  1  0.37461918  0.62429883  0.12478358  1
  F  F85  1  0.37474108  0.62430786  0.37471491  1
  F  F86  1  0.37471204  0.62469848  0.62483688  1
  F  F87  1  0.37462091  0.62464666  0.87471105  1
  F  F88  1  0.12448038  0.87450084  0.12476938  1
  F  F89  1  0.12484054  0.87422947  0.37482684  1
  F  F90  1  0.12486143  0.87462354  0.62486352  1
  F  F91  1  0.12466122  0.87477412  0.87479515  1
  F  F92  1  0.62450036  0.87443019  0.12480665  1
  F  F93  1  0.62470938  0.87435774  0.37477544  1
  F  F94  1  0.62480244  0.87459545  0.62482452  1
  F  F95  1  0.62464265  0.87467164  0.87481588  1
  K  K96  1  0.99984566  0.99975384  0.99982184  1
  K  K97  1  0.99982776  0.99959015  0.24988308  1
  K  K98  1  0.99987161  0.99968448  0.49988501  1
  K  K99  1  0.99978849  0.99982125  0.74992478  1
  K  K100  1  0.49981541  0.99973277  0.99985344  1
  K  K101  1  0.49964533  0.99947405  0.24976206  1
  K  K102  1  0.49991213  0.99972527  0.49981642  1
  K  K103  1  0.49984545  0.99984554  0.74984049  1
  K  K104  1  0.24983009  0.24970083  0.99983033  1
  K  K105  1  0.24984905  0.24958284  0.24984575  1
  K  K106  1  0.24988296  0.24967365  0.49984309  1
  K  K107  1  0.24979880  0.24981766  0.74988800  1
  K  K108  1  0.99978708  0.49978964  0.99985406  1
  K  K109  1  0.99975535  0.49948201  0.24984314  1
  K  K110  1  0.99993281  0.49974840  0.49988597  1
  K  K111  1  0.99979608  0.49978592  0.74983696  1
  K  K112  1  0.74976443  0.24973861  0.99979314  1
  K  K113  1  0.74973074  0.24949754  0.24980209  1
  K  K114  1  0.74992910  0.24972551  0.49986308  1
  K  K115  1  0.74986146  0.24980948  0.74984565  1
  K  K116  1  0.49971969  0.49974168  0.99981483  1
  K  K117  1  0.49980366  0.49961822  0.24983546  1
  K  K118  1  0.49990106  0.49969281  0.49986557  1
  K  K119  1  0.49984892  0.49980743  0.74982995  1
  K  K120  1  0.24983749  0.74970950  0.99985197  1
  K  K121  1  0.24971170  0.74944132  0.24982567  1
  K  K122  1  0.24988942  0.74967694  0.49986004  1
  K  K123  1  0.24985484  0.74975846  0.74986931  1
  K  K124  1  0.74980508  0.74978161  0.99984465  1
  K  K125  1  0.74989374  0.74958969  0.24988198  1
  K  K126  1  0.74988203  0.74974764  0.49987808  1
  K  K127  1  0.74987163  0.74973589  0.74988472  1
  Mg  Mg128  1  0.99955321  0.24940234  0.12479364  1
  Mg  Mg129  1  0.99971165  0.24940468  0.37483967  1
  Mg  Mg130  1  0.99979282  0.24963551  0.62482001  1
  Mg  Mg131  1  0.99962699  0.24969266  0.87484131  1
  Mg  Mg132  1  0.49960071  0.24939215  0.12478436  1
  Mg  Mg133  1  0.49979080  0.24937786  0.37478481  1
  Mg  Mg134  1  0.49985382  0.24964114  0.62477913  1
  Mg  Mg135  1  0.49970025  0.24967393  0.87478755  1
  Mg  Mg136  1  0.24956421  0.49935291  0.12478744  1
  Mg  Mg137  1  0.24976540  0.49931966  0.37480055  1
  Mg  Mg138  1  0.24979330  0.49960237  0.62480200  1
  Mg  Mg139  1  0.24964381  0.49965929  0.87477009  1
  Mg  Mg140  1  0.99960170  0.74943627  0.12480444  1
  Mg  Mg141  1  0.99978680  0.74937562  0.37481982  1
  Mg  Mg142  1  0.99986609  0.74968537  0.62483629  1
  Mg  Mg143  1  0.99973182  0.74970337  0.87481146  1
  Mg  Mg144  1  0.74955326  0.49948567  0.12481697  1
  Mg  Mg145  1  0.74975530  0.49943686  0.37483903  1
  Mg  Mg146  1  0.74978979  0.49971417  0.62483095  1
  Mg  Mg147  1  0.74966281  0.49974760  0.87481878  1
  Mg  Mg148  1  0.49958694  0.74938763  0.12482287  1
  Mg  Mg149  1  0.49970733  0.74938350  0.37479787  1
  Mg  Mg150  1  0.49974964  0.74967620  0.62482875  1
  Mg  Mg151  1  0.49963120  0.74966068  0.87481057  1
  Mg  Mg152  1  0.24955338  0.99942049  0.12480481  1
  Mg  Mg153  1  0.24970466  0.99935395  0.37482725  1
  Mg  Mg154  1  0.24980770  0.99968086  0.62483800  1
  Mg  Mg155  1  0.24969336  0.99971621  0.87480897  1
  Mg  Mg156  1  0.74960596  0.99940765  0.12481196  1
  Mg  Mg157  1  0.74972884  0.99937759  0.37480301  1
  Mg  Mg158  1  0.74979880  0.99961533  0.62482899  1
  Mg  Mg159  1  0.74965303  0.99965813  0.87480998  1
