# generated using pymatgen
data_KMgI3
_symmetry_space_group_name_H-M   'P 1'
_cell_length_a   16.52990229
_cell_length_b   16.52990229
_cell_length_c   23.37681300
_cell_angle_alpha   90.00000000
_cell_angle_beta   90.00000000
_cell_angle_gamma   90.00000000
_symmetry_Int_Tables_number   1
_chemical_formula_structural   KMgI3
_chemical_formula_sum   'K32 Mg32 I96'
_cell_volume   6387.42590777
_cell_formula_units_Z   32
loop_
 _symmetry_equiv_pos_site_id
 _symmetry_equiv_pos_as_xyz
  1  'x, y, z'
loop_
 _atom_site_type_symbol
 _atom_site_label
 _atom_site_symmetry_multiplicity
 _atom_site_fract_x
 _atom_site_fract_y
 _atom_site_fract_z
 _atom_site_occupancy
  K  K0  1  0.01018848  -0.00964259  -0.02540830  1
  K  K1  1  0.01317017  -0.01566388  0.24928524  1
  K  K2  1  0.01099555  0.99073533  0.52421782  1
  K  K3  1  0.03877295  -0.03858628  0.74956010  1
  K  K4  1  0.47633298  0.02564746  0.01244265  1
  K  K5  1  0.49872002  0.00201206  0.24870614  1
  K  K6  1  0.47692394  0.02533725  0.48839778  1
  K  K7  1  0.48506680  0.01666592  0.74992633  1
  K  K8  1  0.23468454  0.26638772  0.02473411  1
  K  K9  1  0.27785823  0.22239609  0.25030015  1
  K  K10  1  0.23550798  0.26510343  0.47674247  1
  K  K11  1  0.23210312  0.26785280  0.74993410  1
  K  K12  1  -0.02326356  0.52301382  0.01111780  1
  K  K13  1  -0.00067898  0.50163695  0.24771106  1
  K  K14  1  -0.02254906  0.52249467  0.48898833  1
  K  K15  1  -0.01558477  0.51581661  0.74991160  1
  K  K16  1  0.77211095  0.22789320  -0.01117771  1
  K  K17  1  0.76720350  0.23504981  0.25462876  1
  K  K18  1  0.77210514  0.22723400  0.51138385  1
  K  K19  1  0.75732296  0.24293431  0.74982242  1
  K  K20  1  0.51080981  0.49070952  -0.02478060  1
  K  K21  1  0.51560944  0.48654784  0.24965391  1
  K  K22  1  0.51069187  0.49058449  0.52398706  1
  K  K23  1  0.53709443  0.46420205  0.75028373  1
  K  K24  1  0.27263996  0.72923141  -0.01113688  1
  K  K25  1  0.26656988  0.73456108  0.25347782  1
  K  K26  1  0.27256665  0.72820950  0.51117826  1
  K  K27  1  0.25714994  0.74371822  0.74993963  1
  K  K28  1  0.73426809  0.76601449  0.02456311  1
  K  K29  1  0.78148511  0.71948940  0.25008755  1
  K  K30  1  0.73521422  0.76492675  0.47674337  1
  K  K31  1  0.73210627  0.76788176  0.75015627  1
  Mg  Mg32  1  -0.00479381  0.25257849  0.12579515  1
  Mg  Mg33  1  -0.00403931  0.25203521  0.37503420  1
  Mg  Mg34  1  0.00432166  0.25085633  0.62498248  1
  Mg  Mg35  1  0.00409256  0.25089446  0.87562227  1
  Mg  Mg36  1  0.50097078  0.25747987  0.12363038  1
  Mg  Mg37  1  0.50118425  0.25679436  0.37600812  1
  Mg  Mg38  1  0.50044978  0.24609933  0.62407231  1
  Mg  Mg39  1  0.49983290  0.24597413  0.87602983  1
  Mg  Mg40  1  0.24856437  0.50573834  0.12578869  1
  Mg  Mg41  1  0.24842855  0.50474885  0.37491478  1
  Mg  Mg42  1  0.24957741  0.49620268  0.62481668  1
  Mg  Mg43  1  0.24931446  0.49622762  0.87561136  1
  Mg  Mg44  1  0.00119937  0.75724054  0.12329233  1
  Mg  Mg45  1  0.00109795  0.75623880  0.37645714  1
  Mg  Mg46  1  -0.00005290  0.74540111  0.62402080  1
  Mg  Mg47  1  -0.00035899  0.74586550  0.87605636  1
  Mg  Mg48  1  0.74351838  0.49957966  0.12332118  1
  Mg  Mg49  1  0.74428982  0.49924666  0.37630800  1
  Mg  Mg50  1  0.75497216  0.50074584  0.62422198  1
  Mg  Mg51  1  0.75466463  0.50108813  0.87592601  1
  Mg  Mg52  1  0.49577530  0.75266107  0.12581714  1
  Mg  Mg53  1  0.49634615  0.75232443  0.37476697  1
  Mg  Mg54  1  0.50425739  0.75149354  0.62480400  1
  Mg  Mg55  1  0.50362055  0.75177957  0.87554157  1
  Mg  Mg56  1  0.24327795  -0.00021605  0.12350478  1
  Mg  Mg57  1  0.24351336  -0.00105707  0.37597090  1
  Mg  Mg58  1  0.25536536  0.00060477  0.62385709  1
  Mg  Mg59  1  0.25494859  0.00133182  0.87601101  1
  Mg  Mg60  1  0.74815474  0.00540871  0.12590890  1
  Mg  Mg61  1  0.74833383  0.00420985  0.37480376  1
  Mg  Mg62  1  0.74971007  -0.00424761  0.62469029  1
  Mg  Mg63  1  0.74919107  -0.00379074  0.87555045  1
  I  I64  1  0.00266077  0.20841022  0.00102675  1
  I  I65  1  -0.01324250  0.29269067  0.25069854  1
  I  I66  1  0.00303885  0.20886664  0.49942880  1
  I  I67  1  0.00272488  0.29169328  0.75038102  1
  I  I68  1  0.45419450  0.25371843  -0.00061096  1
  I  I69  1  0.53923316  0.25650958  0.24979218  1
  I  I70  1  0.45574938  0.25215349  0.50064637  1
  I  I71  1  0.54501445  0.24214113  0.75008873  1
  I  I72  1  0.29215189  0.49795709  0.00136121  1
  I  I73  1  0.20856643  0.51441663  0.25055716  1
  I  I74  1  0.29192283  0.49734527  0.49926532  1
  I  I75  1  0.20920149  0.49779841  0.75009293  1
  I  I76  1  0.95442665  0.75350638  -0.00076019  1
  I  I77  1  0.03856392  0.75510207  0.24975836  1
  I  I78  1  -0.04462204  0.75198170  0.50073491  1
  I  I79  1  0.04452831  0.74075607  0.74982865  1
  I  I80  1  0.74639573  0.54641631  -0.00117463  1
  I  I81  1  0.74523610  0.46167782  0.24967309  1
  I  I82  1  0.74812557  0.54486209  0.50083309  1
  I  I83  1  0.75860812  0.45577475  0.75019884  1
  I  I84  1  0.50273918  0.70857060  0.00137954  1
  I  I85  1  0.48685063  0.79285800  0.25062462  1
  I  I86  1  0.50327310  0.70874602  0.49910198  1
  I  I87  1  0.50214951  0.79263008  0.75015325  1
  I  I88  1  0.24642841  0.04673441  -0.00099252  1
  I  I89  1  0.24334180  -0.03872005  0.24981762  1
  I  I90  1  0.24764939  0.04484219  0.50052881  1
  I  I91  1  0.26014650  0.95628450  0.74995780  1
  I  I92  1  0.79207289  -0.00236956  0.00133024  1
  I  I93  1  0.70783486  0.01452367  0.25048467  1
  I  I94  1  0.79213089  -0.00290768  0.49915593  1
  I  I95  1  0.70941263  0.99800318  0.75008868  1
  I  I96  1  0.14200033  0.14975662  0.14655481  1
  I  I97  1  0.14372230  0.14944122  0.35503228  1
  I  I98  1  0.10812606  0.10226024  0.64682567  1
  I  I99  1  0.10705934  0.10224624  0.85265180  1
  I  I100  1  0.64153393  0.15096815  0.10125174  1
  I  I101  1  0.64390481  0.15227113  0.39750351  1
  I  I102  1  0.60614789  0.10088629  0.60226695  1
  I  I103  1  0.60481850  0.10118442  0.89826936  1
  I  I104  1  0.35104665  0.35864833  0.14663787  1
  I  I105  1  0.35084221  0.35652838  0.35505347  1
  I  I106  1  0.39861268  0.39428472  0.64625633  1
  I  I107  1  0.39805416  0.39430909  0.85354359  1
  I  I108  1  0.14319026  0.65182439  0.10202467  1
  I  I109  1  0.14460696  0.65252544  0.39748011  1
  I  I110  1  0.10518230  0.60080894  0.60190535  1
  I  I111  1  0.10498443  0.60111800  0.89822812  1
  I  I112  1  0.84914942  0.35821483  0.10123518  1
  I  I113  1  0.84745741  0.35506605  0.39736078  1
  I  I114  1  0.89926636  0.39537799  0.60203231  1
  I  I115  1  0.89882826  0.39522908  0.89822096  1
  I  I116  1  0.64329066  0.64963519  0.14680976  1
  I  I117  1  0.64467447  0.64964099  0.35421052  1
  I  I118  1  0.60685638  0.60257913  0.64640424  1
  I  I119  1  0.60709122  0.60359463  0.85334167  1
  I  I120  1  0.34962943  0.85908170  0.10146414  1
  I  I121  1  0.34792347  0.85647509  0.39739465  1
  I  I122  1  0.39977456  0.89554030  0.60097204  1
  I  I123  1  0.39905605  0.89607334  0.89910147  1
  I  I124  1  0.85130428  0.85807796  0.14684021  1
  I  I125  1  0.85053833  0.85559517  0.35438666  1
  I  I126  1  0.89894619  0.89407563  0.64574158  1
  I  I127  1  0.89827473  0.89356344  0.85309151  1
  I  I128  1  0.88899635  0.11194109  0.15012876  1
  I  I129  1  0.89160773  0.10832254  0.35235459  1
  I  I130  1  0.85702737  0.14458887  0.63919532  1
  I  I131  1  0.85585811  0.14426340  0.86085860  1
  I  I132  1  0.39187036  0.10843442  0.14329363  1
  I  I133  1  0.39441558  0.10620211  0.35667434  1
  I  I134  1  0.36050440  0.14132442  0.65139610  1
  I  I135  1  0.35954533  0.14176013  0.84775661  1
  I  I136  1  0.10032812  0.40023102  0.10504346  1
  I  I137  1  0.10095365  0.39962328  0.39583692  1
  I  I138  1  0.15554458  0.34481139  0.60875962  1
  I  I139  1  0.15549474  0.34487804  0.89164525  1
  I  I140  1  0.89339681  0.60712446  0.14143177  1
  I  I141  1  0.89565877  0.60415779  0.35789042  1
  I  I142  1  0.85937317  0.64116999  0.65213130  1
  I  I143  1  0.85962682  0.64114199  0.84786876  1
  I  I144  1  0.59174687  0.40920671  0.10740086  1
  I  I145  1  0.59207859  0.40902110  0.39218269  1
  I  I146  1  0.64624427  0.35422115  0.60358607  1
  I  I147  1  0.64595879  0.35420261  0.89616370  1
  I  I148  1  0.39012214  0.61162043  0.14996901  1
  I  I149  1  0.39186441  0.60916579  0.35226334  1
  I  I150  1  0.35623231  0.64497916  0.63920087  1
  I  I151  1  0.35620602  0.64502554  0.86085277  1
  I  I152  1  0.09170127  0.90909910  0.10723328  1
  I  I153  1  0.09131847  0.90819545  0.39226640  1
  I  I154  1  0.14634335  0.85406917  0.60401591  1
  I  I155  1  0.14619124  0.85412688  0.89581945  1
  I  I156  1  0.60060080  0.90011354  0.10495701  1
  I  I157  1  0.60074149  0.90000688  0.39613417  1
  I  I158  1  0.65724227  0.84352576  0.60993446  1
  I  I159  1  0.65544758  0.84509083  0.89160961  1
