# generated using pymatgen
data_KPbBr3
_symmetry_space_group_name_H-M   'P 1'
_cell_length_a   16.83697896
_cell_length_b   16.83697896
_cell_length_c   23.81108500
_cell_angle_alpha   90.00000000
_cell_angle_beta   90.00000000
_cell_angle_gamma   90.00000000
_symmetry_Int_Tables_number   1
_chemical_formula_structural   KPbBr3
_chemical_formula_sum   'K32 Pb32 Br96'
_cell_volume   6750.05830153
_cell_formula_units_Z   32
loop_
 _symmetry_equiv_pos_site_id
 _symmetry_equiv_pos_as_xyz
  1  'x, y, z'
loop_
 _atom_site_type_symbol
 _atom_site_label
 _atom_site_symmetry_multiplicity
 _atom_site_fract_x
 _atom_site_fract_y
 _atom_site_fract_z
 _atom_site_occupancy
  Br  Br0  1  0.00882018  0.29810261  0.99627758  1
  Br  Br1  1  0.97119121  0.19407839  0.24729817  1
  Br  Br2  1  0.01115762  0.29950382  0.49689056  1
  Br  Br3  1  0.03222834  0.19415364  0.74734157  1
  Br  Br4  1  0.48812540  0.29895522  0.00383691  1
  Br  Br5  1  0.47308994  0.20026868  0.25375124  1
  Br  Br6  1  0.50075771  0.30016593  0.50391610  1
  Br  Br7  1  0.53447919  0.19970538  0.75432833  1
  Br  Br8  1  0.24999453  0.45042910  0.99711249  1
  Br  Br9  1  0.21517757  0.55723100  0.24652702  1
  Br  Br10  1  0.24686769  0.45164469  0.49629807  1
  Br  Br11  1  0.28093497  0.56169930  0.74876228  1
  Br  Br12  1  0.00578186  0.79906964  -0.00143440  1
  Br  Br13  1  0.97618128  0.70538361  0.24953531  1
  Br  Br14  1  0.94575281  0.77593426  0.50116125  1
  Br  Br15  1  0.03660905  0.70439847  0.74666971  1
  Br  Br16  1  0.76722400  0.45391746  0.99839423  1
  Br  Br17  1  0.72047831  0.54387958  0.24642070  1
  Br  Br18  1  0.74684077  0.45127438  0.49713388  1
  Br  Br19  1  0.77231619  0.54718507  0.74802837  1
  Br  Br20  1  0.51608714  0.79887316  0.00155038  1
  Br  Br21  1  0.47495942  0.68893186  0.24946810  1
  Br  Br22  1  0.52355633  0.79510253  0.49928316  1
  Br  Br23  1  0.52919972  0.69748976  0.75061666  1
  Br  Br24  1  0.25207058  0.95274689  0.00314397  1
  Br  Br25  1  0.20384654  0.03553805  0.25446186  1
  Br  Br26  1  0.29650048  0.97107612  0.49937026  1
  Br  Br27  1  0.27188354  0.04693207  0.75169445  1
  Br  Br28  1  0.74815453  0.95027705  0.00040038  1
  Br  Br29  1  0.71975995  0.05623573  0.24937421  1
  Br  Br30  1  0.74433704  0.96045822  0.50081654  1
  Br  Br31  1  0.77794075  0.06331678  0.75103460  1
  Br  Br32  1  0.09453573  0.09755291  0.09798240  1
  Br  Br33  1  0.09754144  0.10021348  0.40952049  1
  Br  Br34  1  0.16901592  0.16764999  0.60491547  1
  Br  Br35  1  0.17461918  0.16124711  0.89285341  1
  Br  Br36  1  0.58152382  0.08295802  0.10522487  1
  Br  Br37  1  0.58471271  0.10440996  0.40444605  1
  Br  Br38  1  0.65246830  0.15400819  0.59586345  1
  Br  Br39  1  0.65399989  0.14940242  0.90627138  1
  Br  Br40  1  0.39783117  0.40350775  0.14992390  1
  Br  Br41  1  0.38792647  0.40982142  0.35292962  1
  Br  Br42  1  0.36283465  0.36354286  0.66115497  1
  Br  Br43  1  0.36255701  0.35778932  0.83901320  1
  Br  Br44  1  0.09752848  0.59979122  0.09121691  1
  Br  Br45  1  0.07159686  0.58938397  0.39520187  1
  Br  Br46  1  0.14636772  0.64766424  0.59105879  1
  Br  Br47  1  0.15635187  0.65331706  0.90004271  1
  Br  Br48  1  0.88745538  0.38974416  0.16059225  1
  Br  Br49  1  0.88726499  0.38929513  0.34350466  1
  Br  Br50  1  0.86240796  0.35639225  0.65994720  1
  Br  Br51  1  0.86322724  0.34539577  0.85101792  1
  Br  Br52  1  0.59800507  0.60004803  0.09244120  1
  Br  Br53  1  0.58645228  0.58908662  0.39189652  1
  Br  Br54  1  0.66991461  0.66647142  0.60956673  1
  Br  Br55  1  0.67416856  0.66140883  0.89172676  1
  Br  Br56  1  0.39169319  0.89019533  0.15372579  1
  Br  Br57  1  0.37836218  0.88082012  0.33487288  1
  Br  Br58  1  0.34795597  0.84668597  0.64438848  1
  Br  Br59  1  0.36903645  0.85324327  0.84051834  1
  Br  Br60  1  0.89879646  0.90140963  0.14659025  1
  Br  Br61  1  0.88833342  0.90802358  0.35001702  1
  Br  Br62  1  0.85950444  0.86188810  0.65947761  1
  Br  Br63  1  0.86495592  0.86380655  0.83823335  1
  Br  Br64  1  0.84639949  0.14876364  0.09289612  1
  Br  Br65  1  0.82880343  0.15694833  0.39194459  1
  Br  Br66  1  0.92784666  0.08770353  0.60641736  1
  Br  Br67  1  0.90480942  0.09925578  0.90365511  1
  Br  Br68  1  0.33090934  0.16140051  0.11643298  1
  Br  Br69  1  0.32676556  0.16414169  0.38416635  1
  Br  Br70  1  0.42058414  0.08575259  0.62139572  1
  Br  Br71  1  0.41744766  0.08619998  0.88811837  1
  Br  Br72  1  0.14410342  0.34926603  0.14911348  1
  Br  Br73  1  0.13580940  0.34706829  0.34536917  1
  Br  Br74  1  0.11568248  0.40514829  0.65289253  1
  Br  Br75  1  0.10701540  0.39815803  0.84579257  1
  Br  Br76  1  0.83327431  0.66197199  0.11251831  1
  Br  Br77  1  0.82110445  0.66470070  0.38136191  1
  Br  Br78  1  0.91644861  0.58196842  0.61283082  1
  Br  Br79  1  0.91855434  0.58920482  0.88258809  1
  Br  Br80  1  0.63612874  0.35717833  0.15656553  1
  Br  Br81  1  0.63829460  0.35056266  0.34985333  1
  Br  Br82  1  0.61350654  0.38997157  0.66022494  1
  Br  Br83  1  0.61641759  0.38833160  0.84829791  1
  Br  Br84  1  0.34446556  0.65017425  0.09828558  1
  Br  Br85  1  0.33784854  0.64593323  0.40778433  1
  Br  Br86  1  0.41678338  0.60013529  0.59735643  1
  Br  Br87  1  0.41742732  0.58525983  0.89483089  1
  Br  Br88  1  0.14597801  0.84595432  0.14709900  1
  Br  Br89  1  0.12922469  0.85816934  0.39701466  1
  Br  Br90  1  0.10989311  0.88853703  0.60940400  1
  Br  Br91  1  0.11558255  0.89166361  0.83639361  1
  Br  Br92  1  0.64605772  0.84929143  0.15120949  1
  Br  Br93  1  0.63012684  0.85391376  0.33875587  1
  Br  Br94  1  0.61251819  0.90741994  0.65120224  1
  Br  Br95  1  0.60793249  0.89773449  0.84789156  1
  K  K96  1  0.95464646  0.99448470  0.02242442  1
  K  K97  1  0.00814740  0.99534966  0.24733886  1
  K  K98  1  0.00300770  0.96818908  0.49624986  1
  K  K99  1  0.97138826  0.98984118  0.74569120  1
  K  K100  1  0.54721445  0.99688167  0.97595927  1
  K  K101  1  0.52370224  0.98626716  0.24428968  1
  K  K102  1  0.54021125  0.99705304  0.52643535  1
  K  K103  1  0.47515457  0.00006305  0.75433760  1
  K  K104  1  0.20633808  0.24721230  0.02278126  1
  K  K105  1  0.26605793  0.23290432  0.24865184  1
  K  K106  1  0.20530560  0.25268621  0.47705417  1
  K  K107  1  0.22993233  0.25298902  0.74466289  1
  K  K108  1  0.04664225  0.49818139  0.96972020  1
  K  K109  1  0.01771219  0.49772050  0.26551293  1
  K  K110  1  0.04651100  0.49511982  0.52479223  1
  K  K111  1  0.97246974  0.49690690  0.74725102  1
  K  K112  1  0.80007234  0.25705844  0.97292152  1
  K  K113  1  0.77198527  0.26774069  0.25430998  1
  K  K114  1  0.69674048  0.25673718  0.47601408  1
  K  K115  1  0.72628645  0.27375712  0.75352694  1
  K  K116  1  0.45322985  0.49573766  0.02286531  1
  K  K117  1  0.52745425  0.48450067  0.25598747  1
  K  K118  1  0.45468295  0.49668627  0.47751446  1
  K  K119  1  0.48172140  0.48549136  0.75687234  1
  K  K120  1  0.20406995  0.75654221  0.02069775  1
  K  K121  1  0.28583700  0.75640979  0.23343227  1
  K  K122  1  0.24835307  0.77851716  0.51207787  1
  K  K123  1  0.23388558  0.76446663  0.75624630  1
  K  K124  1  0.70983037  0.74719248  0.01913118  1
  K  K125  1  0.77014862  0.74175202  0.24770453  1
  K  K126  1  0.73131398  0.75962664  0.49062606  1
  K  K127  1  0.72704307  0.75058718  0.74613232  1
  Pb  Pb128  1  0.98657427  0.25094088  0.12897681  1
  Pb  Pb129  1  0.98956898  0.25324841  0.37471427  1
  Pb  Pb130  1  0.01223940  0.23918665  0.62505609  1
  Pb  Pb131  1  0.01643252  0.25043799  0.87069798  1
  Pb  Pb132  1  0.48822660  0.25516066  0.12339590  1
  Pb  Pb133  1  0.48322655  0.24455975  0.37339668  1
  Pb  Pb134  1  0.51201783  0.25249527  0.62698095  1
  Pb  Pb135  1  0.51196942  0.24987436  0.87430282  1
  Pb  Pb136  1  0.23547169  0.50200041  0.12755015  1
  Pb  Pb137  1  0.24071976  0.50614634  0.37507802  1
  Pb  Pb138  1  0.26231745  0.50025370  0.63224198  1
  Pb  Pb139  1  0.26896375  0.49888895  0.87169046  1
  Pb  Pb140  1  0.98681254  0.74960145  0.12546048  1
  Pb  Pb141  1  0.98059713  0.74282570  0.37926509  1
  Pb  Pb142  1  0.00417783  0.74364340  0.62263265  1
  Pb  Pb143  1  0.01349537  0.75416187  0.87026467  1
  Pb  Pb144  1  0.74002856  0.49735130  0.12500113  1
  Pb  Pb145  1  0.73629923  0.49835525  0.37755619  1
  Pb  Pb146  1  0.76241909  0.49337806  0.62814821  1
  Pb  Pb147  1  0.76213255  0.50647044  0.87809584  1
  Pb  Pb148  1  0.49362243  0.75113514  0.12149159  1
  Pb  Pb149  1  0.49038459  0.75134184  0.36637763  1
  Pb  Pb150  1  0.51454006  0.74363759  0.61997011  1
  Pb  Pb151  1  0.51088331  0.75000755  0.86844055  1
  Pb  Pb152  1  0.24026385  -0.00154946  0.12209625  1
  Pb  Pb153  1  0.23751490  0.99930453  0.37742075  1
  Pb  Pb154  1  0.26769858  -0.00022601  0.62126831  1
  Pb  Pb155  1  0.26204793  0.00534434  0.87325241  1
  Pb  Pb156  1  0.73303107  0.00399982  0.12533842  1
  Pb  Pb157  1  0.74196657  0.00613221  0.37245067  1
  Pb  Pb158  1  0.76021200  0.00102357  0.62901294  1
  Pb  Pb159  1  0.76391418  0.00160814  0.86997262  1
