# generated using pymatgen
data_KPbCl3
_symmetry_space_group_name_H-M   'P 1'
_cell_length_a   16.06829732
_cell_length_b   16.06829732
_cell_length_c   22.72400400
_cell_angle_alpha   90.00000000
_cell_angle_beta   90.00000000
_cell_angle_gamma   90.00000000
_symmetry_Int_Tables_number   1
_chemical_formula_structural   KPbCl3
_chemical_formula_sum   'K32 Pb32 Cl96'
_cell_volume   5867.11465799
_cell_formula_units_Z   32
loop_
 _symmetry_equiv_pos_site_id
 _symmetry_equiv_pos_as_xyz
  1  'x, y, z'
loop_
 _atom_site_type_symbol
 _atom_site_label
 _atom_site_symmetry_multiplicity
 _atom_site_fract_x
 _atom_site_fract_y
 _atom_site_fract_z
 _atom_site_occupancy
  Cl  Cl0  1  0.02186162  0.20525048  0.00160610  1
  Cl  Cl1  1  0.99108226  0.30337871  0.25192214  1
  Cl  Cl2  1  0.00566675  0.20413316  0.50151288  1
  Cl  Cl3  1  0.99407131  0.29796861  0.75185648  1
  Cl  Cl4  1  0.54208519  0.28366881  0.00167112  1
  Cl  Cl5  1  0.46092582  0.21417870  0.25215208  1
  Cl  Cl6  1  0.53655173  0.27338696  0.50286682  1
  Cl  Cl7  1  0.45048785  0.26516839  0.75406067  1
  Cl  Cl8  1  0.28028950  0.55744736  0.00167280  1
  Cl  Cl9  1  0.25579004  0.45944426  0.25204743  1
  Cl  Cl10  1  0.22348843  0.54637388  0.50430598  1
  Cl  Cl11  1  0.24020957  0.45353189  0.75417677  1
  Cl  Cl12  1  0.02147030  0.70427908  0.99865174  1
  Cl  Cl13  1  0.02634829  0.80338036  0.25006271  1
  Cl  Cl14  1  0.98456611  0.69810781  0.49861879  1
  Cl  Cl15  1  0.00532113  0.79893243  0.74712017  1
  Cl  Cl16  1  0.76299858  0.54750263  0.00144621  1
  Cl  Cl17  1  0.79297603  0.47977560  0.25397221  1
  Cl  Cl18  1  0.69955620  0.50652132  0.50240792  1
  Cl  Cl19  1  0.79115418  0.46976502  0.75130689  1
  Cl  Cl20  1  0.52369194  0.69329919  0.99357887  1
  Cl  Cl21  1  0.52782168  0.80628695  0.24875332  1
  Cl  Cl22  1  0.46661795  0.69092580  0.49438490  1
  Cl  Cl23  1  0.51112166  0.80155002  0.74003825  1
  Cl  Cl24  1  0.21798058  0.03068205  0.00329482  1
  Cl  Cl25  1  0.27360986  0.96245745  0.25500525  1
  Cl  Cl26  1  0.19747100  0.02718511  0.50474715  1
  Cl  Cl27  1  0.27691006  0.95502479  0.75136003  1
  Cl  Cl28  1  0.78027499  0.04492415  0.99733047  1
  Cl  Cl29  1  0.77572304  0.95106461  0.24991125  1
  Cl  Cl30  1  0.74351542  0.04591933  0.49874351  1
  Cl  Cl31  1  0.75862451  0.94835903  0.74732373  1
  Cl  Cl32  1  0.11953334  0.12622140  0.16644109  1
  Cl  Cl33  1  0.08127109  0.07283496  0.35921890  1
  Cl  Cl34  1  0.10334837  0.10000182  0.66229928  1
  Cl  Cl35  1  0.16145410  0.17207222  0.85953141  1
  Cl  Cl36  1  0.61098278  0.10819859  0.10542134  1
  Cl  Cl37  1  0.58489712  0.09309702  0.37627547  1
  Cl  Cl38  1  0.58763565  0.09081681  0.63004593  1
  Cl  Cl39  1  0.65565345  0.15690607  0.85686406  1
  Cl  Cl40  1  0.40874122  0.41157199  0.12914084  1
  Cl  Cl41  1  0.39705108  0.41151486  0.38604416  1
  Cl  Cl42  1  0.40415721  0.41170021  0.61509769  1
  Cl  Cl43  1  0.35458962  0.35839466  0.90963366  1
  Cl  Cl44  1  0.11699860  0.62034183  0.15804477  1
  Cl  Cl45  1  0.07646211  0.58695212  0.35575228  1
  Cl  Cl46  1  0.09726398  0.60262740  0.66013226  1
  Cl  Cl47  1  0.15385382  0.65462473  0.85341669  1
  Cl  Cl48  1  0.91245084  0.41884473  0.10904762  1
  Cl  Cl49  1  0.88682261  0.37844112  0.40801863  1
  Cl  Cl50  1  0.90319170  0.40024025  0.59589562  1
  Cl  Cl51  1  0.84299938  0.35426650  0.90193660  1
  Cl  Cl52  1  0.61397062  0.61996098  0.16344765  1
  Cl  Cl53  1  0.60033117  0.59711381  0.34592872  1
  Cl  Cl54  1  0.60241761  0.59845074  0.65991973  1
  Cl  Cl55  1  0.65860320  0.66726617  0.85315614  1
  Cl  Cl56  1  0.40803411  0.91336524  0.11004883  1
  Cl  Cl57  1  0.40257598  0.89528304  0.39981843  1
  Cl  Cl58  1  0.39903820  0.89158545  0.59514428  1
  Cl  Cl59  1  0.35795350  0.86172760  0.91705782  1
  Cl  Cl60  1  0.92261613  0.92170106  0.10925359  1
  Cl  Cl61  1  0.88814402  0.89388665  0.40765765  1
  Cl  Cl62  1  0.90082955  0.90313992  0.60067536  1
  Cl  Cl63  1  0.86102794  0.86080785  0.90799963  1
  Cl  Cl64  1  0.85860756  0.14915703  0.14844565  1
  Cl  Cl65  1  0.84506259  0.15374685  0.35673533  1
  Cl  Cl66  1  0.84772731  0.14338259  0.65856057  1
  Cl  Cl67  1  0.90498545  0.09200441  0.85281249  1
  Cl  Cl68  1  0.36160621  0.16207652  0.10141656  1
  Cl  Cl69  1  0.34214413  0.14955780  0.39674097  1
  Cl  Cl70  1  0.33826931  0.14230878  0.63012969  1
  Cl  Cl71  1  0.40327432  0.10079639  0.90163756  1
  Cl  Cl72  1  0.16213552  0.35032286  0.10595731  1
  Cl  Cl73  1  0.14110081  0.35898274  0.40694204  1
  Cl  Cl74  1  0.14929621  0.34244919  0.61110622  1
  Cl  Cl75  1  0.09235414  0.40569992  0.89793691  1
  Cl  Cl76  1  0.86904079  0.65420293  0.15975305  1
  Cl  Cl77  1  0.83575787  0.66235627  0.36890861  1
  Cl  Cl78  1  0.82714057  0.66014984  0.62935605  1
  Cl  Cl79  1  0.90962793  0.59219882  0.86492034  1
  Cl  Cl80  1  0.67650785  0.34851080  0.13368117  1
  Cl  Cl81  1  0.65088297  0.34669510  0.35666382  1
  Cl  Cl82  1  0.63621814  0.35122293  0.65928838  1
  Cl  Cl83  1  0.59469379  0.40713663  0.86160704  1
  Cl  Cl84  1  0.36329909  0.64896411  0.16076999  1
  Cl  Cl85  1  0.34829552  0.65301994  0.34263563  1
  Cl  Cl86  1  0.33584904  0.65779436  0.64479144  1
  Cl  Cl87  1  0.40977579  0.58487644  0.85366104  1
  Cl  Cl88  1  0.17208031  0.84663115  0.11302803  1
  Cl  Cl89  1  0.15650262  0.83446590  0.40057637  1
  Cl  Cl90  1  0.14586808  0.83509507  0.61012483  1
  Cl  Cl91  1  0.11112779  0.88734133  0.90130228  1
  Cl  Cl92  1  0.65960170  0.84879399  0.09776046  1
  Cl  Cl93  1  0.64681965  0.85271227  0.40622682  1
  Cl  Cl94  1  0.64400770  0.84897915  0.59590971  1
  Cl  Cl95  1  0.60865602  0.88796806  0.90910204  1
  K  K96  1  0.98163526  0.00288733  0.97989901  1
  K  K97  1  0.98068130  0.00518991  0.23852755  1
  K  K98  1  0.99969412  0.00542129  0.49119547  1
  K  K99  1  0.95654857  0.99715451  0.72983806  1
  K  K100  1  0.50268488  0.99755348  0.00370330  1
  K  K101  1  0.46658952  0.99879800  0.28017527  1
  K  K102  1  0.53882224  0.97480179  0.49685944  1
  K  K103  1  0.46458335  0.99038027  0.71186638  1
  K  K104  1  0.23764045  0.23125075  0.99077744  1
  K  K105  1  0.27504361  0.26780351  0.20554024  1
  K  K106  1  0.21859886  0.22532979  0.50167710  1
  K  K107  1  0.23195755  0.24933663  0.73199202  1
  K  K108  1  0.96386708  0.50597329  0.98615721  1
  K  K109  1  0.99012900  0.50809307  0.23418980  1
  K  K110  1  0.02120548  0.49052689  0.48642650  1
  K  K111  1  0.02719811  0.49459702  0.77179701  1
  K  K112  1  0.73813467  0.23747519  0.02137954  1
  K  K113  1  0.78284659  0.28068086  0.24802578  1
  K  K114  1  0.73466072  0.24484140  0.46124558  1
  K  K115  1  0.77498217  0.26869138  0.76761981  1
  K  K116  1  0.47724226  0.48868088  0.97679212  1
  K  K117  1  0.45989645  0.52789281  0.25242170  1
  K  K118  1  0.50215339  0.48099034  0.49733499  1
  K  K119  1  0.49687303  0.46790854  0.74329068  1
  K  K120  1  0.21731017  0.75337888  0.98568738  1
  K  K121  1  0.22986227  0.75834760  0.24162280  1
  K  K122  1  0.26801528  0.74820381  0.51149087  1
  K  K123  1  0.20759718  0.75562076  0.73452552  1
  K  K124  1  0.72109659  0.74748057  0.98016636  1
  K  K125  1  0.72499959  0.73294615  0.25638048  1
  K  K126  1  0.78386216  0.76453194  0.49846709  1
  K  K127  1  0.70662875  0.75256938  0.72603506  1
  Pb  Pb128  1  0.01518263  0.25424206  0.12798892  1
  Pb  Pb129  1  0.99511281  0.24965381  0.37616658  1
  Pb  Pb130  1  0.99097046  0.25798100  0.62594726  1
  Pb  Pb131  1  0.00992907  0.25248840  0.87839396  1
  Pb  Pb132  1  0.51212976  0.25190809  0.12223704  1
  Pb  Pb133  1  0.48620290  0.24334377  0.37473934  1
  Pb  Pb134  1  0.49941529  0.25603951  0.62637719  1
  Pb  Pb135  1  0.50348862  0.25224731  0.87484014  1
  Pb  Pb136  1  0.26242620  0.51257105  0.12546606  1
  Pb  Pb137  1  0.24412950  0.49893862  0.37480277  1
  Pb  Pb138  1  0.24360322  0.50420332  0.62812081  1
  Pb  Pb139  1  0.25891018  0.50207527  0.87733887  1
  Pb  Pb140  1  0.00909601  0.75649349  0.13064968  1
  Pb  Pb141  1  0.99614428  0.74136307  0.37770719  1
  Pb  Pb142  1  0.99295298  0.74760898  0.62626333  1
  Pb  Pb143  1  0.00224635  0.75107632  0.87769461  1
  Pb  Pb144  1  0.76210925  0.50810818  0.12906500  1
  Pb  Pb145  1  0.74025217  0.49846190  0.37536532  1
  Pb  Pb146  1  0.74489603  0.50141828  0.62844431  1
  Pb  Pb147  1  0.75499435  0.50173787  0.87237404  1
  Pb  Pb148  1  0.51481498  0.75628886  0.13037793  1
  Pb  Pb149  1  0.49157958  0.74595245  0.37763133  1
  Pb  Pb150  1  0.49323694  0.74708184  0.62285817  1
  Pb  Pb151  1  0.50718643  0.74852271  0.87865517  1
  Pb  Pb152  1  0.25889358  0.99867417  0.12488210  1
  Pb  Pb153  1  0.23312898  0.99079425  0.38099834  1
  Pb  Pb154  1  0.23604994  0.99883453  0.62828755  1
  Pb  Pb155  1  0.26051901  0.99630664  0.88384185  1
  Pb  Pb156  1  0.76473482  0.99896416  0.12310922  1
  Pb  Pb157  1  0.74975257  0.99234319  0.37500701  1
  Pb  Pb158  1  0.74478910  0.00386671  0.62401586  1
  Pb  Pb159  1  0.75593192  0.00094623  0.87441752  1
