# generated using pymatgen
data_KPbF3
_symmetry_space_group_name_H-M   'P 1'
_cell_length_a   13.61089903
_cell_length_b   13.61089903
_cell_length_c   19.24871800
_cell_angle_alpha   90.00000000
_cell_angle_beta   90.00000000
_cell_angle_gamma   90.00000000
_symmetry_Int_Tables_number   1
_chemical_formula_structural   KPbF3
_chemical_formula_sum   'K32 Pb32 F96'
_cell_volume   3565.95151827
_cell_formula_units_Z   32
loop_
 _symmetry_equiv_pos_site_id
 _symmetry_equiv_pos_as_xyz
  1  'x, y, z'
loop_
 _atom_site_type_symbol
 _atom_site_label
 _atom_site_symmetry_multiplicity
 _atom_site_fract_x
 _atom_site_fract_y
 _atom_site_fract_z
 _atom_site_occupancy
  F  F0  1  0.97093168  0.21939400  0.00430056  1
  F  F1  1  0.04100982  0.22220174  0.25357423  1
  F  F2  1  0.02312145  0.22198703  0.50674914  1
  F  F3  1  0.03757818  0.29556176  0.75657469  1
  F  F4  1  0.46337029  0.26276418  0.00383535  1
  F  F5  1  0.52628790  0.28849868  0.25426022  1
  F  F6  1  0.52814867  0.19259732  0.50551686  1
  F  F7  1  0.52395149  0.28271597  0.75518399  1
  F  F8  1  0.27566353  0.45927391  0.99988396  1
  F  F9  1  0.27914728  0.54122057  0.24757706  1
  F  F10  1  0.21406514  0.51922359  0.49448403  1
  F  F11  1  0.28828556  0.46509068  0.74224562  1
  F  F12  1  0.95618787  0.73038492  0.99577960  1
  F  F13  1  0.03386061  0.78073444  0.24844906  1
  F  F14  1  0.01847079  0.71152663  0.49797384  1
  F  F15  1  0.04880743  0.79120312  0.74621987  1
  F  F16  1  0.77661092  0.53137981  0.99851346  1
  F  F17  1  0.71237844  0.47646214  0.24963410  1
  F  F18  1  0.79926817  0.53644863  0.49809552  1
  F  F19  1  0.73797070  0.46701144  0.74595950  1
  F  F20  1  0.54877938  0.77552384  0.00683069  1
  F  F21  1  0.52214770  0.69961974  0.25641999  1
  F  F22  1  0.52420685  0.79541051  0.50426913  1
  F  F23  1  0.44868928  0.76937224  0.75678371  1
  F  F24  1  0.27557134  0.03914467  0.99981360  1
  F  F25  1  0.20396585  0.01030025  0.25319569  1
  F  F26  1  0.28618627  0.04844065  0.50410639  1
  F  F27  1  0.26737270  0.96946841  0.75144035  1
  F  F28  1  0.77791176  0.01658009  0.00581946  1
  F  F29  1  0.79001983  0.96184858  0.25571054  1
  F  F30  1  0.77747161  0.04463055  0.50337610  1
  F  F31  1  0.75627424  0.04292253  0.75544635  1
  F  F32  1  0.15841456  0.16796308  0.11023620  1
  F  F33  1  0.09164036  0.09366065  0.38284077  1
  F  F34  1  0.17056672  0.17559907  0.63644863  1
  F  F35  1  0.15827493  0.16538493  0.87235825  1
  F  F36  1  0.65561768  0.16344394  0.13330693  1
  F  F37  1  0.61039151  0.11427160  0.33745277  1
  F  F38  1  0.66304621  0.17519416  0.63501965  1
  F  F39  1  0.67380689  0.16222320  0.88970067  1
  F  F40  1  0.35256035  0.35992977  0.15359063  1
  F  F41  1  0.40499626  0.40999758  0.38196950  1
  F  F42  1  0.36281821  0.36955949  0.58035323  1
  F  F43  1  0.35267774  0.33937222  0.87049016  1
  F  F44  1  0.13675736  0.64929749  0.10139694  1
  F  F45  1  0.10337031  0.61109551  0.34800058  1
  F  F46  1  0.15405881  0.66509772  0.62967064  1
  F  F47  1  0.14128727  0.63156062  0.91510461  1
  F  F48  1  0.83858905  0.34244010  0.12601147  1
  F  F49  1  0.89161747  0.40059942  0.34417349  1
  F  F50  1  0.87741615  0.38027159  0.61597611  1
  F  F51  1  0.85690925  0.36423128  0.85698591  1
  F  F52  1  0.65422289  0.65783590  0.12513177  1
  F  F53  1  0.59728526  0.61047120  0.40791735  1
  F  F54  1  0.66001414  0.66623339  0.61670411  1
  F  F55  1  0.63491262  0.64646163  0.83994466  1
  F  F56  1  0.35990824  0.87252297  0.09569562  1
  F  F57  1  0.37632023  0.88422488  0.32999265  1
  F  F58  1  0.35182660  0.86232948  0.60910175  1
  F  F59  1  0.34644573  0.85736089  0.90271001  1
  F  F60  1  0.83645860  0.84479855  0.11889860  1
  F  F61  1  0.90544004  0.91138554  0.39326051  1
  F  F62  1  0.85465946  0.86860351  0.65771938  1
  F  F63  1  0.86226543  0.85311587  0.85189702  1
  F  F64  1  0.90726945  0.08155432  0.13759265  1
  F  F65  1  0.85970534  0.13421619  0.34908131  1
  F  F66  1  0.90708019  0.09033564  0.63787498  1
  F  F67  1  0.90317479  0.08092306  0.87251871  1
  F  F68  1  0.38364375  0.10528190  0.15408945  1
  F  F69  1  0.36489116  0.12463603  0.33754615  1
  F  F70  1  0.40522386  0.09288169  0.63975020  1
  F  F71  1  0.39660164  0.08274072  0.86623800  1
  F  F72  1  0.08351323  0.40589371  0.13096951  1
  F  F73  1  0.16513924  0.32259534  0.37605627  1
  F  F74  1  0.10907693  0.39162223  0.60609863  1
  F  F75  1  0.09754098  0.38460650  0.91619555  1
  F  F76  1  0.89912802  0.59541736  0.13869340  1
  F  F77  1  0.84874598  0.63373531  0.33443052  1
  F  F78  1  0.88883541  0.60245728  0.64849773  1
  F  F79  1  0.87427006  0.60710748  0.83642303  1
  F  F80  1  0.58818733  0.40319345  0.11040297  1
  F  F81  1  0.65715676  0.33017697  0.38818695  1
  F  F82  1  0.60898446  0.38351794  0.57874477  1
  F  F83  1  0.58207941  0.39740683  0.88925697  1
  F  F84  1  0.40485426  0.58547105  0.11116917  1
  F  F85  1  0.34076107  0.64402018  0.39091413  1
  F  F86  1  0.39060103  0.61172235  0.58984874  1
  F  F87  1  0.39380357  0.57988301  0.88778743  1
  F  F88  1  0.10099364  0.89097627  0.08765163  1
  F  F89  1  0.15124952  0.83482981  0.38705381  1
  F  F90  1  0.09703177  0.90006754  0.59568216  1
  F  F91  1  0.09429312  0.88305780  0.90914097  1
  F  F92  1  0.60013347  0.88587660  0.16105297  1
  F  F93  1  0.65412452  0.83181136  0.36788404  1
  F  F94  1  0.58264367  0.91071478  0.63798760  1
  F  F95  1  0.57698033  0.89899022  0.86471439  1
  K  K96  1  0.98210967  0.00698765  0.00223463  1
  K  K97  1  0.99354447  0.01255092  0.26482699  1
  K  K98  1  0.98531022  0.01980133  0.50092763  1
  K  K99  1  0.95722036  0.97470740  0.75513959  1
  K  K100  1  0.46426297  0.96152695  0.98721191  1
  K  K101  1  0.48891463  0.00659767  0.25181065  1
  K  K102  1  0.48266129  0.99786982  0.52815611  1
  K  K103  1  0.47477550  0.97738371  0.75192622  1
  K  K104  1  0.25346254  0.24925094  0.99120344  1
  K  K105  1  0.24730622  0.22114483  0.24146170  1
  K  K106  1  0.22822557  0.25349056  0.50607791  1
  K  K107  1  0.23666134  0.26894017  0.75947454  1
  K  K108  1  0.01208177  0.52606024  0.01815971  1
  K  K109  1  0.98445706  0.51854174  0.25179857  1
  K  K110  1  0.99934571  0.51718027  0.52637107  1
  K  K111  1  0.94559917  0.47075349  0.74631102  1
  K  K112  1  0.76607489  0.22080989  0.01857452  1
  K  K113  1  0.73295748  0.26027804  0.25843384  1
  K  K114  1  0.72428762  0.24202215  0.50667971  1
  K  K115  1  0.72534035  0.25252955  0.76309344  1
  K  K116  1  0.47636115  0.47321879  0.00110703  1
  K  K117  1  0.49276910  0.49398987  0.23578024  1
  K  K118  1  0.48505676  0.49389833  0.49498689  1
  K  K119  1  0.47931380  0.47676715  0.78309756  1
  K  K120  1  0.22024430  0.77417470  0.00183875  1
  K  K121  1  0.23887331  0.73810947  0.28085371  1
  K  K122  1  0.23112998  0.72601681  0.50258310  1
  K  K123  1  0.25109430  0.77618116  0.72685917  1
  K  K124  1  0.75450881  0.73284627  0.01606858  1
  K  K125  1  0.72845922  0.75957180  0.24440525  1
  K  K126  1  0.71590699  0.72408445  0.48593065  1
  K  K127  1  0.76839434  0.72801936  0.74457619  1
  Pb  Pb128  1  0.00229644  0.24919159  0.12842952  1
  Pb  Pb129  1  0.00895508  0.24495957  0.37297948  1
  Pb  Pb130  1  0.00982218  0.25279293  0.62888917  1
  Pb  Pb131  1  0.00032722  0.25216926  0.87924766  1
  Pb  Pb132  1  0.49913546  0.25322844  0.12998468  1
  Pb  Pb133  1  0.50566465  0.24442674  0.37217226  1
  Pb  Pb134  1  0.50676342  0.25366399  0.62038168  1
  Pb  Pb135  1  0.49962964  0.24410226  0.88000894  1
  Pb  Pb136  1  0.25400495  0.50157618  0.12775985  1
  Pb  Pb137  1  0.25103784  0.49610344  0.37252279  1
  Pb  Pb138  1  0.25819042  0.49997332  0.61868447  1
  Pb  Pb139  1  0.24270942  0.49331712  0.88412978  1
  Pb  Pb140  1  0.99853851  0.75617036  0.12456961  1
  Pb  Pb141  1  0.00063079  0.74993250  0.37367303  1
  Pb  Pb142  1  0.00641174  0.76061201  0.62643768  1
  Pb  Pb143  1  0.99884595  0.74740227  0.87555040  1
  Pb  Pb144  1  0.74784045  0.49616990  0.12307785  1
  Pb  Pb145  1  0.75338029  0.49659979  0.36948979  1
  Pb  Pb146  1  0.74958991  0.50441940  0.61659607  1
  Pb  Pb147  1  0.74365675  0.50235750  0.87063261  1
  Pb  Pb148  1  0.50462954  0.74836649  0.12508114  1
  Pb  Pb149  1  0.49996408  0.74631145  0.37343897  1
  Pb  Pb150  1  0.50026809  0.75767147  0.62180463  1
  Pb  Pb151  1  0.49520252  0.74801526  0.87421221  1
  Pb  Pb152  1  0.24607543  0.00589931  0.12011612  1
  Pb  Pb153  1  0.25081873  0.99804475  0.36970407  1
  Pb  Pb154  1  0.25147556  0.01272339  0.62238957  1
  Pb  Pb155  1  0.24548982  0.00133158  0.87568897  1
  Pb  Pb156  1  0.75500468  0.99604828  0.13461230  1
  Pb  Pb157  1  0.75748567  0.99966692  0.37486808  1
  Pb  Pb158  1  0.75300592  0.01254657  0.63190013  1
  Pb  Pb159  1  0.74964990  0.00440875  0.87822409  1
