# generated using pymatgen
data_KPbI3
_symmetry_space_group_name_H-M   'P 1'
_cell_length_a   17.98056862
_cell_length_b   17.98056862
_cell_length_c   25.42836500
_cell_angle_alpha   90.00000000
_cell_angle_beta   90.00000000
_cell_angle_gamma   90.00000000
_symmetry_Int_Tables_number   1
_chemical_formula_structural   KPbI3
_chemical_formula_sum   'K32 Pb32 I96'
_cell_volume   8221.01196415
_cell_formula_units_Z   32
loop_
 _symmetry_equiv_pos_site_id
 _symmetry_equiv_pos_as_xyz
  1  'x, y, z'
loop_
 _atom_site_type_symbol
 _atom_site_label
 _atom_site_symmetry_multiplicity
 _atom_site_fract_x
 _atom_site_fract_y
 _atom_site_fract_z
 _atom_site_occupancy
  I  I0  1  0.98513526  0.20728479  0.99766074  1
  I  I1  1  0.03361810  0.23203298  0.25233840  1
  I  I2  1  0.94152709  0.27143181  0.50040699  1
  I  I3  1  0.02550143  0.29476635  0.74966588  1
  I  I4  1  0.47069079  0.21961309  0.99729346  1
  I  I5  1  0.52755760  0.24083913  0.25028792  1
  I  I6  1  0.44840562  0.23676267  0.49797602  1
  I  I7  1  0.53471384  0.28614647  0.74767009  1
  I  I8  1  0.24362615  0.52003784  -0.00049615  1
  I  I9  1  0.25331259  0.45884226  0.25253803  1
  I  I10  1  0.28905300  0.54250526  0.49992334  1
  I  I11  1  0.26408656  0.44835366  0.74846594  1
  I  I12  1  0.97448896  0.70831119  0.99594166  1
  I  I13  1  0.04099382  0.73983697  0.24741914  1
  I  I14  1  0.95480647  0.76759299  0.49637193  1
  I  I15  1  0.04038160  0.76678347  0.74604074  1
  I  I16  1  0.73750646  0.54169794  0.00263021  1
  I  I17  1  0.71214867  0.45564136  0.25053789  1
  I  I18  1  0.74780405  0.54083777  0.49814808  1
  I  I19  1  0.75891662  0.46130561  0.75172267  1
  I  I20  1  0.47314975  0.69165405  0.00382948  1
  I  I21  1  0.51401248  0.79177702  0.25191366  1
  I  I22  1  0.51443401  0.69679681  0.50505684  1
  I  I23  1  0.52617309  0.79034633  0.75796756  1
  I  I24  1  0.25305123  0.02866757  0.99682904  1
  I  I25  1  0.25835918  0.96233202  0.24998434  1
  I  I26  1  0.28082746  0.03484767  0.50233109  1
  I  I27  1  0.27669447  0.94367834  0.75016053  1
  I  I28  1  0.78243872  0.02486979  0.99523113  1
  I  I29  1  0.74506742  0.96167231  0.24588403  1
  I  I30  1  0.79773312  0.01943342  0.49792297  1
  I  I31  1  0.69985286  0.99825859  0.74585658  1
  I  I32  1  0.08234792  0.07690792  0.12788958  1
  I  I33  1  0.09429050  0.10755271  0.41685768  1
  I  I34  1  0.08702560  0.10916516  0.62683002  1
  I  I35  1  0.11279887  0.10263324  0.83856702  1
  I  I36  1  0.59574470  0.08609264  0.10741885  1
  I  I37  1  0.60382484  0.09562769  0.39214798  1
  I  I38  1  0.60796743  0.11658076  0.59952694  1
  I  I39  1  0.60651856  0.09893075  0.88124030  1
  I  I40  1  0.40536780  0.39914718  0.11121263  1
  I  I41  1  0.42258177  0.41812801  0.37731881  1
  I  I42  1  0.41720556  0.42492032  0.61556191  1
  I  I43  1  0.41027367  0.40525575  0.89619731  1
  I  I44  1  0.08351107  0.57434657  0.12525743  1
  I  I45  1  0.09763362  0.59340819  0.39334385  1
  I  I46  1  0.09981709  0.60814128  0.60315968  1
  I  I47  1  0.10038865  0.58881079  0.85461161  1
  I  I48  1  0.90119230  0.40125138  0.14323624  1
  I  I49  1  0.90527427  0.41342726  0.35324758  1
  I  I50  1  0.91826114  0.43420674  0.62366172  1
  I  I51  1  0.91622952  0.40681632  0.89454323  1
  I  I52  1  0.58350518  0.58712009  0.14401559  1
  I  I53  1  0.59496261  0.60750912  0.35201534  1
  I  I54  1  0.59545751  0.60392797  0.65501941  1
  I  I55  1  0.60049097  0.58964270  0.85312509  1
  I  I56  1  0.39455022  0.89433809  0.10096735  1
  I  I57  1  0.41037830  0.92495590  0.38243232  1
  I  I58  1  0.42218189  0.92610902  0.61901249  1
  I  I59  1  0.41223992  0.89766414  0.89734811  1
  I  I60  1  0.90685961  0.89294990  0.11418143  1
  I  I61  1  0.92384806  0.91842942  0.35977421  1
  I  I62  1  0.90363941  0.91492504  0.64031675  1
  I  I63  1  0.92115993  0.90994713  0.87484162  1
  I  I64  1  0.84896399  0.14907611  0.14633951  1
  I  I65  1  0.85178661  0.15223763  0.35113694  1
  I  I66  1  0.84614172  0.16523556  0.65045802  1
  I  I67  1  0.85709224  0.13893759  0.84249886  1
  I  I68  1  0.34943589  0.13889471  0.14901031  1
  I  I69  1  0.33084380  0.15939558  0.35005454  1
  I  I70  1  0.33789888  0.16063816  0.64993592  1
  I  I71  1  0.36315401  0.13633861  0.83936947  1
  I  I72  1  0.16429015  0.33465442  0.11133393  1
  I  I73  1  0.15350183  0.35435771  0.40611035  1
  I  I74  1  0.15581558  0.35559609  0.59301607  1
  I  I75  1  0.16020550  0.33735366  0.89397540  1
  I  I76  1  0.83862597  0.64769962  0.15301502  1
  I  I77  1  0.84443540  0.65115242  0.34077947  1
  I  I78  1  0.83270996  0.66477918  0.64291061  1
  I  I79  1  0.85367355  0.64242160  0.84837161  1
  I  I80  1  0.64603770  0.34305711  0.09528891  1
  I  I81  1  0.65176361  0.34815433  0.40960008  1
  I  I82  1  0.64188399  0.35828363  0.58987361  1
  I  I83  1  0.65078258  0.34443492  0.90403416  1
  I  I84  1  0.34445628  0.64982888  0.15867630  1
  I  I85  1  0.35012250  0.65735003  0.34990090  1
  I  I86  1  0.34787325  0.65852388  0.65610709  1
  I  I87  1  0.35646948  0.64231832  0.84779889  1
  I  I88  1  0.15886104  0.82991010  0.10124441  1
  I  I89  1  0.15656948  0.83905108  0.38898746  1
  I  I90  1  0.13749208  0.85905510  0.59202511  1
  I  I91  1  0.16212745  0.83636889  0.89071422  1
  I  I92  1  0.65944117  0.83067271  0.10669897  1
  I  I93  1  0.66913337  0.83879622  0.39285639  1
  I  I94  1  0.65256545  0.85192438  0.60041562  1
  I  I95  1  0.67050045  0.82934554  0.89987418  1
  K  K96  1  0.98384251  0.00658784  0.00675986  1
  K  K97  1  0.94212771  0.03157761  0.24017024  1
  K  K98  1  0.00089876  0.97510297  0.51670416  1
  K  K99  1  0.97007141  0.04774063  0.73986332  1
  K  K100  1  0.46160467  0.02326659  0.00380503  1
  K  K101  1  0.45051265  0.04793636  0.26538942  1
  K  K102  1  0.48351643  0.03203595  0.50006719  1
  K  K103  1  0.47792198  0.98415256  0.76932720  1
  K  K104  1  0.29381699  0.31901019  0.00217636  1
  K  K105  1  0.23541165  0.25827268  0.23694596  1
  K  K106  1  0.24161571  0.22777529  0.49714961  1
  K  K107  1  0.22443956  0.24451959  0.76208437  1
  K  K108  1  0.04389930  0.51679836  0.98412027  1
  K  K109  1  0.96191663  0.54770389  0.24562566  1
  K  K110  1  0.03571075  0.46024301  0.50242695  1
  K  K111  1  0.95794167  0.49243011  0.76588795  1
  K  K112  1  0.68332331  0.19866295  0.00013033  1
  K  K113  1  0.82460192  0.29087729  0.24984847  1
  K  K114  1  0.73776890  0.21597628  0.50915423  1
  K  K115  1  0.71434441  0.20393778  0.75624348  1
  K  K116  1  0.54071202  0.48607674  0.01368608  1
  K  K117  1  0.45282608  0.53749232  0.25632784  1
  K  K118  1  0.54284824  0.48870788  0.49529960  1
  K  K119  1  0.45541007  0.52718160  0.74563794  1
  K  K120  1  0.29591445  0.79759017  0.99563843  1
  K  K121  1  0.24056155  0.76446901  0.25656137  1
  K  K122  1  0.17896086  0.71197224  0.49697283  1
  K  K123  1  0.23639646  0.74783163  0.76475445  1
  K  K124  1  0.77560480  0.73790980  0.01148396  1
  K  K125  1  0.71315070  0.75584218  0.25419356  1
  K  K126  1  0.74826191  0.73898435  0.50635570  1
  K  K127  1  0.70773997  0.69676045  0.75594540  1
  Pb  Pb128  1  0.00177325  0.23345873  0.12451282  1
  Pb  Pb129  1  0.99727251  0.24182706  0.38311879  1
  Pb  Pb130  1  0.99395096  0.25738769  0.62669451  1
  Pb  Pb131  1  0.00522801  0.25538351  0.87735288  1
  Pb  Pb132  1  0.50462528  0.24903850  0.12652737  1
  Pb  Pb133  1  0.50681435  0.26525314  0.37847890  1
  Pb  Pb134  1  0.50177911  0.26345721  0.61995809  1
  Pb  Pb135  1  0.50361007  0.25733555  0.87195692  1
  Pb  Pb136  1  0.24321741  0.49397060  0.12722892  1
  Pb  Pb137  1  0.24783110  0.49995513  0.38089014  1
  Pb  Pb138  1  0.25636142  0.50003293  0.61932243  1
  Pb  Pb139  1  0.25448484  0.49979145  0.86894955  1
  Pb  Pb140  1  0.01011805  0.74358398  0.11929976  1
  Pb  Pb141  1  -0.00005301  0.76419173  0.37079177  1
  Pb  Pb142  1  0.00076140  0.75715236  0.62255231  1
  Pb  Pb143  1  0.00667259  0.75395953  0.86948877  1
  Pb  Pb144  1  0.75266905  0.49743449  0.13072120  1
  Pb  Pb145  1  0.75653942  0.50425314  0.36792559  1
  Pb  Pb146  1  0.76109740  0.50804895  0.62498074  1
  Pb  Pb147  1  0.75123781  0.49989960  0.87602213  1
  Pb  Pb148  1  0.49325000  0.73483236  0.12487523  1
  Pb  Pb149  1  0.50073060  0.75008211  0.37257776  1
  Pb  Pb150  1  0.49998876  0.74339828  0.62346504  1
  Pb  Pb151  1  0.51582179  0.75028087  0.87913630  1
  Pb  Pb152  1  0.25051622  0.99592655  0.12259000  1
  Pb  Pb153  1  0.25595683  0.00471190  0.37692873  1
  Pb  Pb154  1  0.26963885  0.00458045  0.62754036  1
  Pb  Pb155  1  0.25118783  0.00293564  0.86821300  1
  Pb  Pb156  1  0.74263405  0.98265932  0.12250730  1
  Pb  Pb157  1  0.74903460  -0.00441201  0.37861255  1
  Pb  Pb158  1  0.74465906  0.99500202  0.62412590  1
  Pb  Pb159  1  0.75663145  0.99571840  0.87306037  1
