# generated using pymatgen
data_KSnBr3
_symmetry_space_group_name_H-M   'P 1'
_cell_length_a   16.52432463
_cell_length_b   16.52432463
_cell_length_c   23.36892400
_cell_angle_alpha   90.00000000
_cell_angle_beta   90.00000000
_cell_angle_gamma   90.00000000
_symmetry_Int_Tables_number   1
_chemical_formula_structural   KSnBr3
_chemical_formula_sum   'K32 Sn32 Br96'
_cell_volume   6380.96191985
_cell_formula_units_Z   32
loop_
 _symmetry_equiv_pos_site_id
 _symmetry_equiv_pos_as_xyz
  1  'x, y, z'
loop_
 _atom_site_type_symbol
 _atom_site_label
 _atom_site_symmetry_multiplicity
 _atom_site_fract_x
 _atom_site_fract_y
 _atom_site_fract_z
 _atom_site_occupancy
  Br  Br0  1  0.06008074  0.25687545  0.98364819  1
  Br  Br1  1  0.95009915  0.26425965  0.23778615  1
  Br  Br2  1  0.05779680  0.27878431  0.49311273  1
  Br  Br3  1  0.94021116  0.22702326  0.73857812  1
  Br  Br4  1  0.54808529  0.25824802  0.98896523  1
  Br  Br5  1  0.44542210  0.28817697  0.24422194  1
  Br  Br6  1  0.54871923  0.27369787  0.49502682  1
  Br  Br7  1  0.43983686  0.22171860  0.74136985  1
  Br  Br8  1  0.20266660  0.49205535  0.00468066  1
  Br  Br9  1  0.29736342  0.51182802  0.25787409  1
  Br  Br10  1  0.18466174  0.52525111  0.50820665  1
  Br  Br11  1  0.30990542  0.47714113  0.75324590  1
  Br  Br12  1  0.05211410  0.75952599  0.00539307  1
  Br  Br13  1  0.94907641  0.76251830  0.25558735  1
  Br  Br14  1  0.05901444  0.77102282  0.50660842  1
  Br  Br15  1  0.93971203  0.72701921  0.75576577  1
  Br  Br16  1  0.69215080  0.50813538  0.00848084  1
  Br  Br17  1  0.81075394  0.51358300  0.26316007  1
  Br  Br18  1  0.69194639  0.52046244  0.51567808  1
  Br  Br19  1  0.81943075  0.47035681  0.76248123  1
  Br  Br20  1  0.55810739  0.76079129  0.00446004  1
  Br  Br21  1  0.44785343  0.75263521  0.25687171  1
  Br  Br22  1  0.56466265  0.77078085  0.50458911  1
  Br  Br23  1  0.44335503  0.73082652  0.75284330  1
  Br  Br24  1  0.18814760  0.99858118  0.99696687  1
  Br  Br25  1  0.31015875  0.01997929  0.24938483  1
  Br  Br26  1  0.19243755  0.01804861  0.50064606  1
  Br  Br27  1  0.31121781  0.97985971  0.74774871  1
  Br  Br28  1  0.69202330  0.01094079  0.98751033  1
  Br  Br29  1  0.79913011  0.01778192  0.24148412  1
  Br  Br30  1  0.69126726  0.03347478  0.49617623  1
  Br  Br31  1  0.81378244  0.98043880  0.74303160  1
  Br  Br32  1  0.11217179  0.10237864  0.17573051  1
  Br  Br33  1  0.15337810  0.15940903  0.36249530  1
  Br  Br34  1  0.15933121  0.13825348  0.65659848  1
  Br  Br35  1  0.14181407  0.15312155  0.83559154  1
  Br  Br36  1  0.60802929  0.09845049  0.16053260  1
  Br  Br37  1  0.66040668  0.18545337  0.35591807  1
  Br  Br38  1  0.65660914  0.13727388  0.65977356  1
  Br  Br39  1  0.66506057  0.14713829  0.84522690  1
  Br  Br40  1  0.40473837  0.39789642  0.09239790  1
  Br  Br41  1  0.34347170  0.36965824  0.40528441  1
  Br  Br42  1  0.34375418  0.32573837  0.60021552  1
  Br  Br43  1  0.36067450  0.34342817  0.89872687  1
  Br  Br44  1  0.10769436  0.59938011  0.15250182  1
  Br  Br45  1  0.14521856  0.67655777  0.35466936  1
  Br  Br46  1  0.16491446  0.64799471  0.65397907  1
  Br  Br47  1  0.15709640  0.63644593  0.83460803  1
  Br  Br48  1  0.91612440  0.39810275  0.10079472  1
  Br  Br49  1  0.86072831  0.37082687  0.40829971  1
  Br  Br50  1  0.85028943  0.33044538  0.59488498  1
  Br  Br51  1  0.84614344  0.35221414  0.90924151  1
  Br  Br52  1  0.61104766  0.59853859  0.15931923  1
  Br  Br53  1  0.63765203  0.65605678  0.34659096  1
  Br  Br54  1  0.66232012  0.64421144  0.66096525  1
  Br  Br55  1  0.63977695  0.65859791  0.84601644  1
  Br  Br56  1  0.41178809  0.89532284  0.10248331  1
  Br  Br57  1  0.34871916  0.85953339  0.41455242  1
  Br  Br58  1  0.36865047  0.84629967  0.59201416  1
  Br  Br59  1  0.33770827  0.85525205  0.90679742  1
  Br  Br60  1  0.91741468  0.90516022  0.10486881  1
  Br  Br61  1  0.83099978  0.86666183  0.41414296  1
  Br  Br62  1  0.86715942  0.84855976  0.59363940  1
  Br  Br63  1  0.85369052  0.83556166  0.89899756  1
  Br  Br64  1  0.82717618  0.15544076  0.10178241  1
  Br  Br65  1  0.90493405  0.12012299  0.41339202  1
  Br  Br66  1  0.92131908  0.09363034  0.59987694  1
  Br  Br67  1  0.88670377  0.09332230  0.90434760  1
  Br  Br68  1  0.32643213  0.16528935  0.11611913  1
  Br  Br69  1  0.38248638  0.10104306  0.41381375  1
  Br  Br70  1  0.42170963  0.09364709  0.59982459  1
  Br  Br71  1  0.38155978  0.09527241  0.91979934  1
  Br  Br72  1  0.13964587  0.34524072  0.14673177  1
  Br  Br73  1  0.11510958  0.40309233  0.33991721  1
  Br  Br74  1  0.10700381  0.41055652  0.65125722  1
  Br  Br75  1  0.09165068  0.39434490  0.84202002  1
  Br  Br76  1  0.83213296  0.65261585  0.10582914  1
  Br  Br77  1  0.88565078  0.60768430  0.41686480  1
  Br  Br78  1  0.91190182  0.60830461  0.59983813  1
  Br  Br79  1  0.89122401  0.58780464  0.90773469  1
  Br  Br80  1  0.63744207  0.35479436  0.15528935  1
  Br  Br81  1  0.58498577  0.41147676  0.36426516  1
  Br  Br82  1  0.60902667  0.40869250  0.66314456  1
  Br  Br83  1  0.59092867  0.38430393  0.84731939  1
  Br  Br84  1  0.33211581  0.65367201  0.10468340  1
  Br  Br85  1  0.40628494  0.61379798  0.39998634  1
  Br  Br86  1  0.40912694  0.60809662  0.58386079  1
  Br  Br87  1  0.40318511  0.58842339  0.89057916  1
  Br  Br88  1  0.14127542  0.84672886  0.15618255  1
  Br  Br89  1  0.07310685  0.91189278  0.36040663  1
  Br  Br90  1  0.12154216  0.89746752  0.66190293  1
  Br  Br91  1  0.08100845  0.89065920  0.84494676  1
  Br  Br92  1  0.63792160  0.84688096  0.15976526  1
  Br  Br93  1  0.59422063  0.92378104  0.35974987  1
  Br  Br94  1  0.62274408  0.89528279  0.65702211  1
  Br  Br95  1  0.58193176  0.89934820  0.84147416  1
  K  K96  1  0.99238099  0.95338383  0.97578125  1
  K  K97  1  0.99411652  0.96142053  0.23421484  1
  K  K98  1  0.98847907  0.96808455  0.49099510  1
  K  K99  1  0.01602220  0.03365024  0.73990440  1
  K  K100  1  0.49967509  0.95430996  0.97710734  1
  K  K101  1  0.50178329  0.95815431  0.23334721  1
  K  K102  1  0.49224160  0.96715884  0.49177915  1
  K  K103  1  0.50960985  0.02654497  0.73259317  1
  K  K104  1  0.25549345  0.28821332  0.01559013  1
  K  K105  1  0.24615946  0.23663113  0.24638425  1
  K  K106  1  0.25482404  0.21949815  0.49057089  1
  K  K107  1  0.24280854  0.28322331  0.73845597  1
  K  K108  1  0.00654683  0.45359216  0.97873743  1
  K  K109  1  0.00237385  0.46318098  0.22811412  1
  K  K110  1  0.98419911  0.46995265  0.50695503  1
  K  K111  1  0.01765237  0.53732469  0.74370260  1
  K  K112  1  0.74137032  0.20863346  0.97773067  1
  K  K113  1  0.74979556  0.22041992  0.22929922  1
  K  K114  1  0.75404951  0.23035895  0.48455300  1
  K  K115  1  0.74083268  0.28029023  0.74131875  1
  K  K116  1  0.50227426  0.45697571  0.97494077  1
  K  K117  1  0.49745434  0.53234299  0.27050251  1
  K  K118  1  0.49354990  0.47434495  0.48974457  1
  K  K119  1  0.51176890  0.53336244  0.75789698  1
  K  K120  1  0.24606353  0.80465011  0.03092344  1
  K  K121  1  0.24711277  0.71090094  0.23460807  1
  K  K122  1  0.26183227  0.71843073  0.49977549  1
  K  K123  1  0.24165254  0.78622053  0.75583951  1
  K  K124  1  0.74849806  0.70239114  0.98023465  1
  K  K125  1  0.75257503  0.71240850  0.23483975  1
  K  K126  1  0.76528229  0.71743042  0.50870162  1
  K  K127  1  0.74000502  0.78770640  0.75374515  1
  Sn  Sn128  1  0.99731055  0.25329386  0.12416841  1
  Sn  Sn129  1  0.00956982  0.24824143  0.38115236  1
  Sn  Sn130  1  0.98921472  0.24246293  0.62343838  1
  Sn  Sn131  1  0.01166840  0.24819546  0.86790735  1
  Sn  Sn132  1  0.49631724  0.26558115  0.13318754  1
  Sn  Sn133  1  0.51257692  0.26253839  0.37722387  1
  Sn  Sn134  1  0.48670141  0.24359414  0.62572648  1
  Sn  Sn135  1  0.49725726  0.24561040  0.87525955  1
  Sn  Sn136  1  0.24488563  0.50872757  0.12053779  1
  Sn  Sn137  1  0.24517457  0.50024949  0.37292622  1
  Sn  Sn138  1  0.24055460  0.50542071  0.62086157  1
  Sn  Sn139  1  0.25886330  0.50427810  0.86538224  1
  Sn  Sn140  1  0.00173914  0.75777333  0.12109681  1
  Sn  Sn141  1  0.00124404  0.76074294  0.37206904  1
  Sn  Sn142  1  0.00196436  0.75131398  0.61836025  1
  Sn  Sn143  1  0.99475595  0.74754697  0.86777532  1
  Sn  Sn144  1  0.74256140  0.50557239  0.12294279  1
  Sn  Sn145  1  0.76440981  0.50496996  0.37904174  1
  Sn  Sn146  1  0.74063102  0.50309032  0.62978572  1
  Sn  Sn147  1  0.76287497  0.48733752  0.87395424  1
  Sn  Sn148  1  0.50795329  0.75392062  0.11978897  1
  Sn  Sn149  1  0.50075805  0.75253672  0.37461707  1
  Sn  Sn150  1  0.49962612  0.74554053  0.61439967  1
  Sn  Sn151  1  0.49814726  0.75068740  0.86473359  1
  Sn  Sn152  1  0.24854220  0.02022522  0.13947457  1
  Sn  Sn153  1  0.25217914  0.99964147  0.38941403  1
  Sn  Sn154  1  0.25269731  -0.00041907  0.63472806  1
  Sn  Sn155  1  0.25153910  0.00108050  0.88609944  1
  Sn  Sn156  1  0.74573891  0.00996000  0.12872051  1
  Sn  Sn157  1  0.74133965  0.00345154  0.38440029  1
  Sn  Sn158  1  0.75172330  0.00163816  0.63165121  1
  Sn  Sn159  1  0.74856206  0.00395336  0.87353784  1
