# generated using pymatgen
data_KSnCl3
_symmetry_space_group_name_H-M   'P 1'
_cell_length_a   15.76105660
_cell_length_b   15.76105660
_cell_length_c   22.28950000
_cell_angle_alpha   90.00000000
_cell_angle_beta   90.00000000
_cell_angle_gamma   90.00000000
_symmetry_Int_Tables_number   1
_chemical_formula_structural   KSnCl3
_chemical_formula_sum   'K32 Sn32 Cl96'
_cell_volume   5536.95486978
_cell_formula_units_Z   32
loop_
 _symmetry_equiv_pos_site_id
 _symmetry_equiv_pos_as_xyz
  1  'x, y, z'
loop_
 _atom_site_type_symbol
 _atom_site_label
 _atom_site_symmetry_multiplicity
 _atom_site_fract_x
 _atom_site_fract_y
 _atom_site_fract_z
 _atom_site_occupancy
  Cl  Cl0  1  0.04514210  0.25446078  0.97936013  1
  Cl  Cl1  1  0.95182082  0.26263071  0.23124340  1
  Cl  Cl2  1  0.07937938  0.20563076  0.47940911  1
  Cl  Cl3  1  0.95200190  0.28815591  0.72511466  1
  Cl  Cl4  1  0.43586504  0.28229509  0.00671471  1
  Cl  Cl5  1  0.54820938  0.24898575  0.24933151  1
  Cl  Cl6  1  0.47766299  0.22486145  0.51328789  1
  Cl  Cl7  1  0.57219809  0.26785396  0.76607153  1
  Cl  Cl8  1  0.23498832  0.43717343  0.00863244  1
  Cl  Cl9  1  0.21296730  0.54738898  0.25029032  1
  Cl  Cl10  1  0.26014297  0.45147645  0.50804595  1
  Cl  Cl11  1  0.23496737  0.55717092  0.76376462  1
  Cl  Cl12  1  0.97501493  0.74986574  0.01528887  1
  Cl  Cl13  1  0.91280948  0.84268734  0.27415025  1
  Cl  Cl14  1  0.04087242  0.73430818  0.50359431  1
  Cl  Cl15  1  0.03086763  0.76669298  0.76094159  1
  Cl  Cl16  1  0.68777627  0.55836328  0.01178978  1
  Cl  Cl17  1  0.80892799  0.48160453  0.25608724  1
  Cl  Cl18  1  0.68236290  0.50283889  0.49993259  1
  Cl  Cl19  1  0.75004727  0.49011138  0.75863243  1
  Cl  Cl20  1  0.55349539  0.79524959  0.01324499  1
  Cl  Cl21  1  0.45737791  0.76544166  0.26347305  1
  Cl  Cl22  1  0.53637565  0.72380455  0.51423970  1
  Cl  Cl23  1  0.44542914  0.76157808  0.76445596  1
  Cl  Cl24  1  0.28120175  0.03121077  0.01309650  1
  Cl  Cl25  1  0.26145647  0.93289788  0.26725169  1
  Cl  Cl26  1  0.28577880  0.04351133  0.50923354  1
  Cl  Cl27  1  0.24216794  0.95947872  0.75818407  1
  Cl  Cl28  1  0.75526194  0.95117238  0.99054910  1
  Cl  Cl29  1  0.76924493  0.07084251  0.24013729  1
  Cl  Cl30  1  0.69313459  0.97544216  0.49774942  1
  Cl  Cl31  1  0.82519636  0.03984125  0.73921539  1
  Cl  Cl32  1  0.10200075  0.08978844  0.11138185  1
  Cl  Cl33  1  0.12861289  0.11297974  0.30468256  1
  Cl  Cl34  1  0.08386251  0.11389076  0.64980605  1
  Cl  Cl35  1  0.10930387  0.09938143  0.84938702  1
  Cl  Cl36  1  0.61660038  0.10512616  0.09818354  1
  Cl  Cl37  1  0.59263753  0.07887820  0.37271538  1
  Cl  Cl38  1  0.63033311  0.08018255  0.65990457  1
  Cl  Cl39  1  0.60717346  0.08350368  0.89614075  1
  Cl  Cl40  1  0.40211217  0.39472698  0.15490581  1
  Cl  Cl41  1  0.40502057  0.38402968  0.34194707  1
  Cl  Cl42  1  0.43311316  0.39029418  0.63148258  1
  Cl  Cl43  1  0.41934806  0.39504058  0.85360843  1
  Cl  Cl44  1  0.10325685  0.58586095  0.09924520  1
  Cl  Cl45  1  0.07058150  0.57662117  0.37214851  1
  Cl  Cl46  1  0.09800968  0.56202234  0.61509378  1
  Cl  Cl47  1  0.11236481  0.58979334  0.90149999  1
  Cl  Cl48  1  0.89340174  0.38392224  0.08389110  1
  Cl  Cl49  1  0.92166251  0.37268730  0.41171978  1
  Cl  Cl50  1  0.87440965  0.40873224  0.57699510  1
  Cl  Cl51  1  0.92323490  0.40953522  0.87948366  1
  Cl  Cl52  1  0.61758530  0.60141859  0.16754641  1
  Cl  Cl53  1  0.62616070  0.58057232  0.34089384  1
  Cl  Cl54  1  0.57056013  0.60410225  0.65302930  1
  Cl  Cl55  1  0.59666087  0.58542363  0.85584878  1
  Cl  Cl56  1  0.41789628  0.91065846  0.12705592  1
  Cl  Cl57  1  0.40380783  0.88009186  0.40796184  1
  Cl  Cl58  1  0.42277605  0.94431748  0.62441835  1
  Cl  Cl59  1  0.41664280  0.90831212  0.88752428  1
  Cl  Cl60  1  0.92701088  0.92114993  0.11771655  1
  Cl  Cl61  1  0.88109882  0.88385806  0.43762961  1
  Cl  Cl62  1  0.95542202  0.90400902  0.61590070  1
  Cl  Cl63  1  0.94149030  0.91492488  0.87802030  1
  Cl  Cl64  1  0.86530363  0.14997884  0.09688680  1
  Cl  Cl65  1  0.83902875  0.12401486  0.41204251  1
  Cl  Cl66  1  0.84278183  0.13724728  0.59106443  1
  Cl  Cl67  1  0.83620050  0.14141484  0.91598805  1
  Cl  Cl68  1  0.34865007  0.17048955  0.14442452  1
  Cl  Cl69  1  0.37814247  0.14636244  0.33190328  1
  Cl  Cl70  1  0.33335927  0.15660083  0.64903361  1
  Cl  Cl71  1  0.35057150  0.12900557  0.83766099  1
  Cl  Cl72  1  0.15183135  0.36552095  0.15275794  1
  Cl  Cl73  1  0.13438662  0.34661880  0.34531666  1
  Cl  Cl74  1  0.15000250  0.33362151  0.64417569  1
  Cl  Cl75  1  0.13305027  0.34322565  0.83719253  1
  Cl  Cl76  1  0.81717857  0.71460526  0.12993468  1
  Cl  Cl77  1  0.84477096  0.67383218  0.38512894  1
  Cl  Cl78  1  0.83445662  0.64081616  0.58460647  1
  Cl  Cl79  1  0.81833925  0.65968039  0.86655066  1
  Cl  Cl80  1  0.65764080  0.37795504  0.12529288  1
  Cl  Cl81  1  0.67869629  0.35004456  0.36230311  1
  Cl  Cl82  1  0.65660162  0.32147755  0.60737961  1
  Cl  Cl83  1  0.63161035  0.34832905  0.91753562  1
  Cl  Cl84  1  0.36217443  0.67936392  0.10269268  1
  Cl  Cl85  1  0.28159971  0.68207717  0.37374117  1
  Cl  Cl86  1  0.33179799  0.64086663  0.58048132  1
  Cl  Cl87  1  0.34692213  0.62464681  0.91619814  1
  Cl  Cl88  1  0.16738177  0.84947626  0.11133399  1
  Cl  Cl89  1  0.11266429  0.92126339  0.40825060  1
  Cl  Cl90  1  0.17382520  0.81496190  0.62540414  1
  Cl  Cl91  1  0.15837166  0.82546703  0.89283649  1
  Cl  Cl92  1  0.63466350  0.89304069  0.19083593  1
  Cl  Cl93  1  0.62499273  0.82543836  0.36937520  1
  Cl  Cl94  1  0.64133718  0.82393724  0.64962361  1
  Cl  Cl95  1  0.63224839  0.84201257  0.84193954  1
  K  K96  1  0.96723699  0.02835464  0.99924351  1
  K  K97  1  0.97277203  0.03837789  0.22814402  1
  K  K98  1  0.98551378  0.02620127  0.50414107  1
  K  K99  1  0.01867166  0.97396711  0.74843137  1
  K  K100  1  0.49877294  0.99279122  0.00544691  1
  K  K101  1  0.47747578  0.97204187  0.27152437  1
  K  K102  1  0.49417134  0.01827632  0.49492558  1
  K  K103  1  0.50470955  0.97556817  0.76289222  1
  K  K104  1  0.23927988  0.23322317  0.02991496  1
  K  K105  1  0.27501743  0.27913536  0.25405291  1
  K  K106  1  0.26982642  0.25142345  0.52801759  1
  K  K107  1  0.21037531  0.20670657  0.75119052  1
  K  K108  1  0.03052290  0.46414239  0.99456349  1
  K  K109  1  0.01746790  0.45827542  0.25601041  1
  K  K110  1  0.97637907  0.54084314  0.49610069  1
  K  K111  1  0.04559522  0.47344325  0.74678790  1
  K  K112  1  0.73201634  0.24653149  0.01685836  1
  K  K113  1  0.75116725  0.27292732  0.23664831  1
  K  K114  1  0.76646994  0.27896300  0.48879400  1
  K  K115  1  0.75759827  0.23003863  0.71404320  1
  K  K116  1  0.49775035  0.48928465  0.96925790  1
  K  K117  1  0.54036112  0.45656793  0.24825297  1
  K  K118  1  0.48289418  0.52275269  0.52733739  1
  K  K119  1  0.53320722  0.46269967  0.74899811  1
  K  K120  1  0.20715487  0.71492049  0.00658786  1
  K  K121  1  0.26562665  0.74259927  0.22529713  1
  K  K122  1  0.23477140  0.78783188  0.48890650  1
  K  K123  1  0.23761083  0.75715340  0.76265568  1
  K  K124  1  0.75717480  0.75004936  0.99191856  1
  K  K125  1  0.72741745  0.73292312  0.26192131  1
  K  K126  1  0.73120139  0.76548896  0.49467222  1
  K  K127  1  0.69838172  0.69620236  0.75245461  1
  Sn  Sn128  1  0.99074248  0.25647049  0.11433768  1
  Sn  Sn129  1  0.01231100  0.24316059  0.37421054  1
  Sn  Sn130  1  0.00817333  0.25284802  0.61749791  1
  Sn  Sn131  1  0.99516838  0.25926194  0.86583776  1
  Sn  Sn132  1  0.48486115  0.25926435  0.12041140  1
  Sn  Sn133  1  0.50226538  0.24945667  0.36215179  1
  Sn  Sn134  1  0.51169122  0.24297391  0.62835442  1
  Sn  Sn135  1  0.50668374  0.25479406  0.87549551  1
  Sn  Sn136  1  0.24156799  0.49792842  0.11991539  1
  Sn  Sn137  1  0.22511436  0.52621502  0.36706566  1
  Sn  Sn138  1  0.25349627  0.50318997  0.61858322  1
  Sn  Sn139  1  0.24998114  0.50163335  0.87577833  1
  Sn  Sn140  1  0.97487727  0.76769260  0.13010318  1
  Sn  Sn141  1  0.97319947  0.78127757  0.37488246  1
  Sn  Sn142  1  0.02223619  0.75099827  0.61974006  1
  Sn  Sn143  1  0.00650005  0.76200861  0.87794448  1
  Sn  Sn144  1  0.74445804  0.52256946  0.11998266  1
  Sn  Sn145  1  0.76073180  0.49604011  0.37018559  1
  Sn  Sn146  1  0.74633411  0.50348232  0.60729325  1
  Sn  Sn147  1  0.74694280  0.50979481  0.87494855  1
  Sn  Sn148  1  0.50221178  0.76688175  0.12587484  1
  Sn  Sn149  1  0.48338122  0.74182255  0.37925368  1
  Sn  Sn150  1  0.49646671  0.75028300  0.62863146  1
  Sn  Sn151  1  0.49558635  0.76178611  0.87790436  1
  Sn  Sn152  1  0.24468393  0.99703495  0.12522660  1
  Sn  Sn153  1  0.23369646  0.01738872  0.36457716  1
  Sn  Sn154  1  0.27053183  0.00774046  0.62314078  1
  Sn  Sn155  1  0.25013372  0.00581831  0.87137816  1
  Sn  Sn156  1  0.73609279  0.00054005  0.13681951  1
  Sn  Sn157  1  0.73796884  0.99622943  0.38562144  1
  Sn  Sn158  1  0.76843625  0.99880478  0.63294306  1
  Sn  Sn159  1  0.75334533  0.00533847  0.88139797  1
