# generated using pymatgen
data_KSnF3
_symmetry_space_group_name_H-M   'P 1'
_cell_length_a   13.31932072
_cell_length_b   13.31932072
_cell_length_c   18.83636300
_cell_angle_alpha   90.00000000
_cell_angle_beta   90.00000000
_cell_angle_gamma   90.00000000
_symmetry_Int_Tables_number   1
_chemical_formula_structural   KSnF3
_chemical_formula_sum   'K32 Sn32 F96'
_cell_volume   3341.65187488
_cell_formula_units_Z   32
loop_
 _symmetry_equiv_pos_site_id
 _symmetry_equiv_pos_as_xyz
  1  'x, y, z'
loop_
 _atom_site_type_symbol
 _atom_site_label
 _atom_site_symmetry_multiplicity
 _atom_site_fract_x
 _atom_site_fract_y
 _atom_site_fract_z
 _atom_site_occupancy
  F  F0  1  0.07010407  0.16758030  0.99232599  1
  F  F1  1  0.92237726  0.29158820  0.23444066  1
  F  F2  1  0.95356626  0.27411395  0.48339707  1
  F  F3  1  0.97926231  0.24312733  0.72698246  1
  F  F4  1  0.55074004  0.29026432  0.98083210  1
  F  F5  1  0.53054718  0.30618258  0.23079057  1
  F  F6  1  0.43859319  0.17525465  0.47834649  1
  F  F7  1  0.48122211  0.30059234  0.73372489  1
  F  F8  1  0.17416548  0.57982284  0.97288045  1
  F  F9  1  0.29034708  0.43145394  0.22738237  1
  F  F10  1  0.18203368  0.43569906  0.47755632  1
  F  F11  1  0.33366778  0.54065372  0.73514976  1
  F  F12  1  0.98092381  0.75025777  0.97726563  1
  F  F13  1  0.06469323  0.81361288  0.21937939  1
  F  F14  1  0.94128104  0.66440556  0.48044746  1
  F  F15  1  0.01486348  0.80348249  0.72793335  1
  F  F16  1  0.76442504  0.52628951  0.98201703  1
  F  F17  1  0.77816059  0.54614098  0.23313817  1
  F  F18  1  0.70119154  0.51559150  0.47706006  1
  F  F19  1  0.80408086  0.44948359  0.73856612  1
  F  F20  1  0.58195054  0.71302074  0.96703597  1
  F  F21  1  0.41008612  0.80105343  0.23234185  1
  F  F22  1  0.50360052  0.71202701  0.47936653  1
  F  F23  1  0.44135864  0.81265124  0.72237909  1
  F  F24  1  0.33864889  0.07252189  0.95748504  1
  F  F25  1  0.25846492  0.03749856  0.23484616  1
  F  F26  1  0.19168545  0.03138972  0.48512122  1
  F  F27  1  0.21445277  0.97193981  0.73276607  1
  F  F28  1  0.69084084  0.04746188  0.03663245  1
  F  F29  1  0.76641534  0.93580599  0.28254087  1
  F  F30  1  0.69483164  0.06501734  0.52625454  1
  F  F31  1  0.80044114  0.99509296  0.77003179  1
  F  F32  1  0.06695337  0.14402704  0.17706140  1
  F  F33  1  0.06049557  0.03341382  0.36187374  1
  F  F34  1  0.07151865  0.04485072  0.62909411  1
  F  F35  1  0.18538820  0.12795223  0.85334871  1
  F  F36  1  0.62500344  0.08495032  0.18045361  1
  F  F37  1  0.60857402  0.06172976  0.35966316  1
  F  F38  1  0.65852990  0.10888130  0.67561877  1
  F  F39  1  0.73033444  0.14968205  0.86753532  1
  F  F40  1  0.46480881  0.41307442  0.10619187  1
  F  F41  1  0.37292942  0.35589852  0.40912562  1
  F  F42  1  0.45324631  0.42006133  0.60677006  1
  F  F43  1  0.37490357  0.31858406  0.88614459  1
  F  F44  1  0.13964782  0.58022728  0.18717343  1
  F  F45  1  0.09897008  0.58525619  0.37497000  1
  F  F46  1  0.13861077  0.60491476  0.68251741  1
  F  F47  1  0.23671313  0.68774506  0.85302261  1
  F  F48  1  0.89339254  0.47327620  0.11723007  1
  F  F49  1  0.91326399  0.40796915  0.37185823  1
  F  F50  1  0.95099039  0.39494255  0.61942879  1
  F  F51  1  0.91118929  0.31561806  0.95856345  1
  F  F52  1  0.56308549  0.66057399  0.17891872  1
  F  F53  1  0.56890502  0.55620651  0.35506069  1
  F  F54  1  0.66893566  0.60064736  0.67448268  1
  F  F55  1  0.71950416  0.61636491  0.84830466  1
  F  F56  1  0.38098522  0.97383684  0.11940948  1
  F  F57  1  0.41493601  0.88331078  0.40014725  1
  F  F58  1  0.41090137  0.88416922  0.58086770  1
  F  F59  1  0.43351699  0.84856098  0.91907244  1
  F  F60  1  0.94337223  0.89145877  0.10930100  1
  F  F61  1  0.88273611  0.85098526  0.42614912  1
  F  F62  1  0.86039923  0.80734165  0.61317396  1
  F  F63  1  0.87432979  0.82050607  0.85898890  1
  F  F64  1  0.83591712  0.10995658  0.15866078  1
  F  F65  1  0.81010976  0.21638988  0.37279134  1
  F  F66  1  0.86055533  0.19149063  0.61132922  1
  F  F67  1  0.91697837  0.05070025  0.89734902  1
  F  F68  1  0.29337572  0.17994632  0.12233624  1
  F  F69  1  0.25265120  0.15387444  0.36980311  1
  F  F70  1  0.33829817  0.23887543  0.62802342  1
  F  F71  1  0.38970426  0.08650479  0.80602014  1
  F  F72  1  0.09485887  0.35607642  0.14949508  1
  F  F73  1  0.12909485  0.37688393  0.33714709  1
  F  F74  1  0.17801884  0.39600521  0.70039079  1
  F  F75  1  0.11844066  0.35351252  0.92285168  1
  F  F76  1  0.79623840  0.67618579  0.11241898  1
  F  F77  1  0.77001771  0.64566563  0.36846068  1
  F  F78  1  0.90634690  0.62619082  0.68497758  1
  F  F79  1  0.92110228  0.53466720  0.87202909  1
  F  F80  1  0.66726069  0.30955878  0.11766392  1
  F  F81  1  0.58190237  0.32134347  0.42557490  1
  F  F82  1  0.67058282  0.37462179  0.63837564  1
  F  F83  1  0.56312982  0.41926440  0.86104431  1
  F  F84  1  0.34167023  0.61590005  0.15976246  1
  F  F85  1  0.35459849  0.68259066  0.37443931  1
  F  F86  1  0.34840071  0.68477695  0.61119198  1
  F  F87  1  0.38025837  0.58866859  0.93754654  1
  F  F88  1  0.14588691  0.82686805  0.07571274  1
  F  F89  1  0.09641120  0.80804065  0.42813110  1
  F  F90  1  0.17702655  0.86715387  0.59957045  1
  F  F91  1  0.08688291  0.87992490  0.87884838  1
  F  F92  1  0.57723577  0.86999441  0.15059451  1
  F  F93  1  0.65671681  0.87550656  0.42235393  1
  F  F94  1  0.63654949  0.90720681  0.63267296  1
  F  F95  1  0.61851656  0.84698610  0.83628927  1
  K  K96  1  0.02963426  0.96949895  0.99694211  1
  K  K97  1  0.97107912  0.98923005  0.23811676  1
  K  K98  1  0.00591718  0.95928532  0.50378615  1
  K  K99  1  0.01394900  0.00101209  0.76694796  1
  K  K100  1  0.50202886  0.99034104  0.01134101  1
  K  K101  1  0.47622540  0.99463171  0.25072590  1
  K  K102  1  0.51587274  0.99369105  0.49248185  1
  K  K103  1  0.53554067  0.98576647  0.74550955  1
  K  K104  1  0.26146449  0.24927302  0.99008677  1
  K  K105  1  0.21323353  0.24822447  0.24702555  1
  K  K106  1  0.24758173  0.24415744  0.49882416  1
  K  K107  1  0.27978530  0.25749796  0.76458468  1
  K  K108  1  0.00048053  0.48883330  0.99917364  1
  K  K109  1  0.98465411  0.48748854  0.24909342  1
  K  K110  1  0.99122093  0.47768513  0.49092592  1
  K  K111  1  0.00847009  0.47171735  0.74795616  1
  K  K112  1  0.74616529  0.23203250  0.00203994  1
  K  K113  1  0.72238907  0.23533309  0.24838823  1
  K  K114  1  0.74084410  0.26221572  0.50460505  1
  K  K115  1  0.77320622  0.24333387  0.73996419  1
  K  K116  1  0.53928574  0.50302671  0.99225962  1
  K  K117  1  0.47796951  0.49982343  0.23700518  1
  K  K118  1  0.49588857  0.50014572  0.48181265  1
  K  K119  1  0.52582746  0.49823650  0.73502112  1
  K  K120  1  0.27100356  0.75853984  0.98231007  1
  K  K121  1  0.22991467  0.72594771  0.26584789  1
  K  K122  1  0.27583793  0.77735779  0.49255252  1
  K  K123  1  0.24362072  0.76762258  0.72675593  1
  K  K124  1  0.77677356  0.72878375  0.97414640  1
  K  K125  1  0.72314304  0.74420717  0.24421277  1
  K  K126  1  0.74401547  0.72861330  0.49941117  1
  K  K127  1  0.76417603  0.75711206  0.74397473  1
  Sn  Sn128  1  0.97309569  0.25369959  0.13078409  1
  Sn  Sn129  1  0.96352007  0.25757077  0.36912776  1
  Sn  Sn130  1  0.00859441  0.24639160  0.61727491  1
  Sn  Sn131  1  0.01856185  0.23459197  0.89772066  1
  Sn  Sn132  1  0.51594766  0.26461179  0.12192148  1
  Sn  Sn133  1  0.46901523  0.23608821  0.37808189  1
  Sn  Sn134  1  0.49381721  0.26928033  0.62299058  1
  Sn  Sn135  1  0.52050829  0.26704578  0.86938903  1
  Sn  Sn136  1  0.24384071  0.49352061  0.13133160  1
  Sn  Sn137  1  0.22765211  0.48528423  0.37667949  1
  Sn  Sn138  1  0.25438784  0.50890796  0.64201418  1
  Sn  Sn139  1  0.25458137  0.53582898  0.88103574  1
  Sn  Sn140  1  0.01951066  0.75365754  0.11887407  1
  Sn  Sn141  1  0.97304900  0.73157351  0.38271727  1
  Sn  Sn142  1  0.99797176  0.72928768  0.62901647  1
  Sn  Sn143  1  0.01318293  0.74182711  0.86529247  1
  Sn  Sn144  1  0.74655748  0.52710386  0.12274535  1
  Sn  Sn145  1  0.71818304  0.49661431  0.36534356  1
  Sn  Sn146  1  0.77505829  0.49844839  0.63276555  1
  Sn  Sn147  1  0.77513603  0.47437259  0.87283215  1
  Sn  Sn148  1  0.46281351  0.76035524  0.13198133  1
  Sn  Sn149  1  0.49650141  0.75343259  0.37036285  1
  Sn  Sn150  1  0.48940029  0.76062509  0.62110598  1
  Sn  Sn151  1  0.51538564  0.73468286  0.86754993  1
  Sn  Sn152  1  0.23560817  0.03413475  0.12472856  1
  Sn  Sn153  1  0.21314741  0.00216316  0.37328800  1
  Sn  Sn154  1  0.22747390  0.01136072  0.62240839  1
  Sn  Sn155  1  0.28272431  0.00337004  0.86232720  1
  Sn  Sn156  1  0.73336687  0.98768050  0.13783559  1
  Sn  Sn157  1  0.74877687  0.99526841  0.38822473  1
  Sn  Sn158  1  0.75797840  0.01182932  0.62325877  1
  Sn  Sn159  1  0.77105268  0.99625673  0.87934417  1
