# generated using pymatgen
data_KSnI3
_symmetry_space_group_name_H-M   'P 1'
_cell_length_a   17.64493897
_cell_length_b   17.64493897
_cell_length_c   24.95371300
_cell_angle_alpha   90.00000000
_cell_angle_beta   90.00000000
_cell_angle_gamma   90.00000000
_symmetry_Int_Tables_number   1
_chemical_formula_structural   KSnI3
_chemical_formula_sum   'K32 Sn32 I96'
_cell_volume   7769.18560847
_cell_formula_units_Z   32
loop_
 _symmetry_equiv_pos_site_id
 _symmetry_equiv_pos_as_xyz
  1  'x, y, z'
loop_
 _atom_site_type_symbol
 _atom_site_label
 _atom_site_symmetry_multiplicity
 _atom_site_fract_x
 _atom_site_fract_y
 _atom_site_fract_z
 _atom_site_occupancy
  I  I0  1  0.95364064  0.25319817  0.00440116  1
  I  I1  1  0.06290421  0.22617520  0.25248558  1
  I  I2  1  0.94680142  0.25773766  0.50361102  1
  I  I3  1  0.06267035  0.27837141  0.75321311  1
  I  I4  1  0.44821278  0.24327998  0.99592150  1
  I  I5  1  0.54685856  0.22894712  0.24551252  1
  I  I6  1  0.44754974  0.24972156  0.49496240  1
  I  I7  1  0.56312425  0.27152173  0.74787513  1
  I  I8  1  0.30254811  0.51491460  0.00757550  1
  I  I9  1  0.19407118  0.47983748  0.25568814  1
  I  I10  1  0.30980690  0.50896449  0.50481868  1
  I  I11  1  0.20607567  0.51444674  0.75576025  1
  I  I12  1  0.95058390  0.73821479  0.99468833  1
  I  I13  1  0.04799113  0.73174454  0.24532297  1
  I  I14  1  0.94976239  0.75301684  0.49737388  1
  I  I15  1  0.05760112  0.76991859  0.74739429  1
  I  I16  1  0.79992033  0.49709814  0.99503153  1
  I  I17  1  0.68743310  0.47098762  0.24518779  1
  I  I18  1  0.79689569  0.50171018  0.49339249  1
  I  I19  1  0.68574761  0.52703012  0.74744036  1
  I  I20  1  0.45316610  0.75073573  0.99375407  1
  I  I21  1  0.56412641  0.72681352  0.24557760  1
  I  I22  1  0.44827945  0.76598256  0.49530765  1
  I  I23  1  0.55812345  0.77134329  0.74574151  1
  I  I24  1  0.30220451  0.99525490  0.99493090  1
  I  I25  1  0.18549739  0.97663863  0.24511236  1
  I  I26  1  0.29762423  0.01110535  0.49489946  1
  I  I27  1  0.18812004  0.02851286  0.74867720  1
  I  I28  1  0.80555680  0.00346836  0.00534133  1
  I  I29  1  0.69495708  0.98087603  0.25396373  1
  I  I30  1  0.81111783  0.99724099  0.50374830  1
  I  I31  1  0.70341237  0.01688885  0.75551932  1
  I  I32  1  0.10428334  0.08665518  0.09563207  1
  I  I33  1  0.10184184  0.09201584  0.40347865  1
  I  I34  1  0.14337813  0.17549157  0.59792558  1
  I  I35  1  0.15024612  0.16312852  0.90192404  1
  I  I36  1  0.58646834  0.08661510  0.10798811  1
  I  I37  1  0.57492208  0.08595567  0.39291844  1
  I  I38  1  0.65925995  0.14747810  0.59653966  1
  I  I39  1  0.66503044  0.16100155  0.89101082  1
  I  I40  1  0.39356470  0.39557961  0.15610486  1
  I  I41  1  0.39388972  0.40228680  0.34665281  1
  I  I42  1  0.36383674  0.35048556  0.66039876  1
  I  I43  1  0.36111753  0.35361060  0.84703848  1
  I  I44  1  0.08636442  0.58510265  0.11237708  1
  I  I45  1  0.09464746  0.60043049  0.40296739  1
  I  I46  1  0.17554470  0.66102648  0.60861957  1
  I  I47  1  0.16525535  0.66236709  0.88794971  1
  I  I48  1  0.90715805  0.38871079  0.15228770  1
  I  I49  1  0.91122908  0.39310137  0.34301982  1
  I  I50  1  0.83227644  0.36240638  0.65600313  1
  I  I51  1  0.84533562  0.36037160  0.84734612  1
  I  I52  1  0.60351812  0.58678164  0.09655517  1
  I  I53  1  0.60617614  0.59041810  0.39857576  1
  I  I54  1  0.66185937  0.67943274  0.60164891  1
  I  I55  1  0.64765506  0.66156472  0.90314604  1
  I  I56  1  0.41116407  0.89088355  0.15388684  1
  I  I57  1  0.39667370  0.89003584  0.34036982  1
  I  I58  1  0.34181763  0.86826283  0.66233889  1
  I  I59  1  0.34298244  0.85717648  0.84637895  1
  I  I60  1  0.89303563  0.89308487  0.15481424  1
  I  I61  1  0.88562922  0.89448801  0.34275418  1
  I  I62  1  0.86376884  0.85192214  0.65683716  1
  I  I63  1  0.86051992  0.85672878  0.84498851  1
  I  I64  1  0.85748930  0.13981737  0.15476732  1
  I  I65  1  0.84782858  0.14215367  0.33724430  1
  I  I66  1  0.89690941  0.10624612  0.65291107  1
  I  I67  1  0.91449736  0.11397534  0.84523085  1
  I  I68  1  0.33832506  0.13677709  0.15323171  1
  I  I69  1  0.33609057  0.14519656  0.34566067  1
  I  I70  1  0.41058882  0.10953568  0.65555401  1
  I  I71  1  0.39994173  0.10777150  0.84100678  1
  I  I72  1  0.14804966  0.34435980  0.09757600  1
  I  I73  1  0.14195034  0.34465689  0.40185699  1
  I  I74  1  0.07962384  0.42210388  0.60583956  1
  I  I75  1  0.08876613  0.42817143  0.89502726  1
  I  I76  1  0.83734879  0.63525293  0.15326343  1
  I  I77  1  0.84104941  0.63677154  0.34582256  1
  I  I78  1  0.90230391  0.60990788  0.66160812  1
  I  I79  1  0.89578281  0.61074415  0.84183537  1
  I  I80  1  0.65968509  0.32189157  0.10325912  1
  I  I81  1  0.64512737  0.33261736  0.40218193  1
  I  I82  1  0.60194572  0.41521036  0.59778868  1
  I  I83  1  0.60760667  0.40492123  0.90248777  1
  I  I84  1  0.35571347  0.64179892  0.16163454  1
  I  I85  1  0.34062095  0.64375494  0.34582026  1
  I  I86  1  0.40073122  0.60525398  0.66073864  1
  I  I87  1  0.41244694  0.60785399  0.85025860  1
  I  I88  1  0.16640232  0.81973956  0.10572299  1
  I  I89  1  0.15016008  0.83702416  0.39858226  1
  I  I90  1  0.09917386  0.91380919  0.60677822  1
  I  I91  1  0.10771892  0.90568336  0.90324050  1
  I  I92  1  0.64986171  0.84315909  0.09885220  1
  I  I93  1  0.64293481  0.84869417  0.40257194  1
  I  I94  1  0.58863411  0.91580321  0.60938960  1
  I  I95  1  0.58788182  0.92465967  0.89364328  1
  K  K96  1  0.99857689  0.04756837  0.97224566  1
  K  K97  1  0.97820061  0.03014746  0.24947399  1
  K  K98  1  0.00177734  0.05380184  0.52836500  1
  K  K99  1  0.98420104  0.96471725  0.74708508  1
  K  K100  1  0.50023501  0.95093007  0.02274451  1
  K  K101  1  0.49234150  0.03077075  0.25010238  1
  K  K102  1  0.49692522  0.04949109  0.52424972  1
  K  K103  1  0.49904662  0.96978275  0.74958047  1
  K  K104  1  0.25373628  0.20128762  0.02564117  1
  K  K105  1  0.26565095  0.28568989  0.24556078  1
  K  K106  1  0.24826055  0.20846282  0.47528740  1
  K  K107  1  0.27111925  0.21967211  0.75330377  1
  K  K108  1  0.99913382  0.45704152  0.02228912  1
  K  K109  1  0.99117778  0.53429232  0.24599661  1
  K  K110  1  0.99568287  0.45575911  0.47532021  1
  K  K111  1  0.00251980  0.47901238  0.75191134  1
  K  K112  1  0.75436447  0.29307480  0.97674159  1
  K  K113  1  0.75150764  0.27128804  0.23953655  1
  K  K114  1  0.74763738  0.30031235  0.52706977  1
  K  K115  1  0.76406879  0.21365558  0.75564742  1
  K  K116  1  0.49841550  0.54270897  0.97497700  1
  K  K117  1  0.48167194  0.53424764  0.25078810  1
  K  K118  1  0.50022842  0.45038330  0.47303089  1
  K  K119  1  0.48294206  0.46410492  0.75253405  1
  K  K120  1  0.25373368  0.79219979  0.97586326  1
  K  K121  1  0.25248818  0.77879007  0.24963144  1
  K  K122  1  0.25437757  0.70322730  0.47836477  1
  K  K123  1  0.25922461  0.71550846  0.74714639  1
  K  K124  1  0.75565522  0.70319871  0.02501223  1
  K  K125  1  0.76593088  0.78509943  0.24644005  1
  K  K126  1  0.75332783  0.70887683  0.47223081  1
  K  K127  1  0.76823941  0.72210346  0.74873788  1
  Sn  Sn128  1  0.00480035  0.24945893  0.12445210  1
  Sn  Sn129  1  0.00521575  0.24882483  0.36669177  1
  Sn  Sn130  1  0.00507587  0.27226387  0.62120997  1
  Sn  Sn131  1  0.01069584  0.25657846  0.86796749  1
  Sn  Sn132  1  0.51239314  0.23692740  0.12260374  1
  Sn  Sn133  1  0.50169190  0.23581421  0.37679455  1
  Sn  Sn134  1  0.50133849  0.25510742  0.63646676  1
  Sn  Sn135  1  0.48881387  0.24782693  0.87704232  1
  Sn  Sn136  1  0.26608941  0.50186317  0.12514778  1
  Sn  Sn137  1  0.25188364  0.49849595  0.36824376  1
  Sn  Sn138  1  0.26517472  0.51756091  0.62366546  1
  Sn  Sn139  1  0.23781080  0.51088885  0.87629126  1
  Sn  Sn140  1  0.01755903  0.73919798  0.12525093  1
  Sn  Sn141  1  0.00480700  0.74648702  0.38515153  1
  Sn  Sn142  1  0.99837247  0.75027570  0.63482466  1
  Sn  Sn143  1  0.98697736  0.74981442  0.87639201  1
  Sn  Sn144  1  0.74123378  0.49389256  0.13037012  1
  Sn  Sn145  1  0.74690834  0.49667941  0.37396138  1
  Sn  Sn146  1  0.74144013  0.50715690  0.63333073  1
  Sn  Sn147  1  0.74861419  0.50128300  0.87511473  1
  Sn  Sn148  1  0.50988808  0.74840622  0.13312005  1
  Sn  Sn149  1  0.49922057  0.76230758  0.38102817  1
  Sn  Sn150  1  0.51771670  0.76344698  0.62528779  1
  Sn  Sn151  1  0.50319718  0.75206526  0.87441968  1
  Sn  Sn152  1  0.24199496  0.99388800  0.13168353  1
  Sn  Sn153  1  0.24832722  0.99968029  0.37896618  1
  Sn  Sn154  1  0.24149755  0.99813684  0.63457924  1
  Sn  Sn155  1  0.24988643  0.99908479  0.87527804  1
  Sn  Sn156  1  0.76592653  0.99807485  0.12229336  1
  Sn  Sn157  1  0.75460307  0.00009196  0.36627108  1
  Sn  Sn158  1  0.76157845  0.00962181  0.61740530  1
  Sn  Sn159  1  0.73550236  0.00778820  0.87456223  1
