# generated using pymatgen
data_KSrCl3
_symmetry_space_group_name_H-M   'P 1'
_cell_length_a   16.08315364
_cell_length_b   16.08315364
_cell_length_c   22.74501400
_cell_angle_alpha   90.00000000
_cell_angle_beta   90.00000000
_cell_angle_gamma   90.00000000
_symmetry_Int_Tables_number   1
_chemical_formula_structural   KSrCl3
_chemical_formula_sum   'K32 Sr32 Cl96'
_cell_volume   5883.40343585
_cell_formula_units_Z   32
loop_
 _symmetry_equiv_pos_site_id
 _symmetry_equiv_pos_as_xyz
  1  'x, y, z'
loop_
 _atom_site_type_symbol
 _atom_site_label
 _atom_site_symmetry_multiplicity
 _atom_site_fract_x
 _atom_site_fract_y
 _atom_site_fract_z
 _atom_site_occupancy
  Cl  Cl0  1  0.05161493  0.23439729  0.00056248  1
  Cl  Cl1  1  0.95311109  0.21934039  0.25299981  1
  Cl  Cl2  1  0.05118563  0.28738404  0.50019782  1
  Cl  Cl3  1  0.95200316  0.26851818  0.75047133  1
  Cl  Cl4  1  0.54724431  0.23724102  0.00217273  1
  Cl  Cl5  1  0.44647386  0.21802331  0.25297892  1
  Cl  Cl6  1  0.55309106  0.28210984  0.49956202  1
  Cl  Cl7  1  0.44876497  0.24476778  0.74860218  1
  Cl  Cl8  1  0.20199729  0.48090020  0.00123309  1
  Cl  Cl9  1  0.30488281  0.47458027  0.25280750  1
  Cl  Cl10  1  0.19469770  0.53188589  0.49910109  1
  Cl  Cl11  1  0.29780443  0.50637679  0.75011510  1
  Cl  Cl12  1  0.04761628  0.72751166  0.00014237  1
  Cl  Cl13  1  0.94623799  0.72026432  0.25139091  1
  Cl  Cl14  1  0.05272986  0.77783702  0.49848248  1
  Cl  Cl15  1  0.95036884  0.76353288  0.75097074  1
  Cl  Cl16  1  0.70170706  0.48435933  0.00255284  1
  Cl  Cl17  1  0.79926038  0.46673996  0.25233707  1
  Cl  Cl18  1  0.69686776  0.53150053  0.49896362  1
  Cl  Cl19  1  0.79753550  0.50501269  0.75024044  1
  Cl  Cl20  1  0.54845671  0.74318500  0.00098014  1
  Cl  Cl21  1  0.44940606  0.72609532  0.25159661  1
  Cl  Cl22  1  0.55780545  0.77711445  0.49869900  1
  Cl  Cl23  1  0.45408440  0.74295317  0.74903251  1
  Cl  Cl24  1  0.20099935  0.98040679  0.00009611  1
  Cl  Cl25  1  0.29951516  0.97012638  0.25249080  1
  Cl  Cl26  1  0.19670338  0.02513545  0.50011463  1
  Cl  Cl27  1  0.29880863  0.00259834  0.74941561  1
  Cl  Cl28  1  0.70353551  0.99426711  0.00055104  1
  Cl  Cl29  1  0.80626451  0.97509126  0.25080553  1
  Cl  Cl30  1  0.69562526  0.03089847  0.49816060  1
  Cl  Cl31  1  0.79935631  0.00501707  0.74880753  1
  Cl  Cl32  1  0.13794820  0.12269654  0.15822011  1
  Cl  Cl33  1  0.15666247  0.16080201  0.35753504  1
  Cl  Cl34  1  0.15726967  0.16601074  0.64087705  1
  Cl  Cl35  1  0.09028952  0.08988718  0.85758583  1
  Cl  Cl36  1  0.65278724  0.13613225  0.14810822  1
  Cl  Cl37  1  0.65646251  0.16083090  0.34688895  1
  Cl  Cl38  1  0.64444679  0.15784676  0.65333888  1
  Cl  Cl39  1  0.58903106  0.09046190  0.85658314  1
  Cl  Cl40  1  0.35703132  0.33988197  0.09654377  1
  Cl  Cl41  1  0.35139779  0.35723342  0.40408278  1
  Cl  Cl42  1  0.34710181  0.35992340  0.60398397  1
  Cl  Cl43  1  0.39444015  0.39073647  0.90926296  1
  Cl  Cl44  1  0.14197239  0.62661399  0.15820680  1
  Cl  Cl45  1  0.15755065  0.66262795  0.35141367  1
  Cl  Cl46  1  0.15439226  0.66519066  0.64997465  1
  Cl  Cl47  1  0.09748917  0.59391956  0.85491197  1
  Cl  Cl48  1  0.84418897  0.32843801  0.11263820  1
  Cl  Cl49  1  0.85709118  0.36265717  0.40885805  1
  Cl  Cl50  1  0.85269962  0.36528486  0.60300924  1
  Cl  Cl51  1  0.91078048  0.40734360  0.89301537  1
  Cl  Cl52  1  0.64394577  0.62948054  0.15895522  1
  Cl  Cl53  1  0.65044582  0.65382140  0.34631575  1
  Cl  Cl54  1  0.64524631  0.65675442  0.65607169  1
  Cl  Cl55  1  0.60861314  0.60461922  0.84445029  1
  Cl  Cl56  1  0.34037570  0.82693074  0.10772499  1
  Cl  Cl57  1  0.35846896  0.86123457  0.40665635  1
  Cl  Cl58  1  0.35381276  0.86300442  0.59089033  1
  Cl  Cl59  1  0.39141608  0.89157125  0.90566829  1
  Cl  Cl60  1  0.84393623  0.82979235  0.10281748  1
  Cl  Cl61  1  0.85548984  0.86110650  0.40442469  1
  Cl  Cl62  1  0.85784842  0.86835971  0.59035464  1
  Cl  Cl63  1  0.89943034  0.89836193  0.89834443  1
  Cl  Cl64  1  0.89619893  0.09073003  0.09773473  1
  Cl  Cl65  1  0.89464115  0.11178314  0.40784001  1
  Cl  Cl66  1  0.88883120  0.12198730  0.59253091  1
  Cl  Cl67  1  0.85615369  0.14272931  0.90914434  1
  Cl  Cl68  1  0.41001386  0.07447730  0.10823048  1
  Cl  Cl69  1  0.39580377  0.10888995  0.40997667  1
  Cl  Cl70  1  0.40103403  0.10927472  0.60255490  1
  Cl  Cl71  1  0.35635422  0.14292999  0.90780330  1
  Cl  Cl72  1  0.11491037  0.37506028  0.15944471  1
  Cl  Cl73  1  0.10087546  0.40496230  0.34411568  1
  Cl  Cl74  1  0.10696360  0.40634402  0.65625783  1
  Cl  Cl75  1  0.15393031  0.34601872  0.85148990  1
  Cl  Cl76  1  0.91128628  0.57521282  0.10734890  1
  Cl  Cl77  1  0.89299548  0.61186183  0.40604754  1
  Cl  Cl78  1  0.89263675  0.61883838  0.59216684  1
  Cl  Cl79  1  0.84736313  0.64811063  0.89758282  1
  Cl  Cl80  1  0.60050352  0.38268934  0.14926668  1
  Cl  Cl81  1  0.59040388  0.41201967  0.35417993  1
  Cl  Cl82  1  0.60722882  0.40602262  0.65436392  1
  Cl  Cl83  1  0.65256416  0.34384382  0.84757929  1
  Cl  Cl84  1  0.41008140  0.57849770  0.11037113  1
  Cl  Cl85  1  0.39487373  0.61155730  0.40647857  1
  Cl  Cl86  1  0.40552103  0.60610193  0.60280905  1
  Cl  Cl87  1  0.34050687  0.65614876  0.89087689  1
  Cl  Cl88  1  0.10677571  0.87651742  0.15798538  1
  Cl  Cl89  1  0.09571496  0.90982611  0.35003356  1
  Cl  Cl90  1  0.09139919  0.91619889  0.64795531  1
  Cl  Cl91  1  0.14952911  0.84641342  0.85297607  1
  Cl  Cl92  1  0.60798207  0.88005747  0.15802742  1
  Cl  Cl93  1  0.60241708  0.90389078  0.34300111  1
  Cl  Cl94  1  0.59120223  0.91842332  0.64189262  1
  Cl  Cl95  1  0.65832323  0.84315121  0.86061672  1
  K  K96  1  0.00275025  0.03211098  0.98245647  1
  K  K97  1  0.00975351  0.01584911  0.24471170  1
  K  K98  1  0.98771948  0.97585591  0.50000908  1
  K  K99  1  0.99328700  0.96435861  0.76530894  1
  K  K100  1  0.49710735  0.02886528  0.98095972  1
  K  K101  1  0.49789253  0.00803704  0.24165218  1
  K  K102  1  0.48912800  0.97684187  0.50552508  1
  K  K103  1  0.49487326  0.04659046  0.72704011  1
  K  K104  1  0.25003976  0.28119435  0.98183602  1
  K  K105  1  0.23980592  0.28134229  0.26135782  1
  K  K106  1  0.25057490  0.22410411  0.49520234  1
  K  K107  1  0.25338626  0.29307341  0.72490324  1
  K  K108  1  0.00679369  0.52889641  0.98525556  1
  K  K109  1  0.00435473  0.51586437  0.23712036  1
  K  K110  1  0.98439459  0.48296014  0.49596827  1
  K  K111  1  0.99675739  0.46726541  0.76692160  1
  K  K112  1  0.74809255  0.20479298  0.02399700  1
  K  K113  1  0.75445299  0.26420286  0.23995596  1
  K  K114  1  0.76592053  0.22373537  0.49554722  1
  K  K115  1  0.74911655  0.29424223  0.72657177  1
  K  K116  1  0.50621998  0.44980374  0.02628809  1
  K  K117  1  0.50800363  0.52730015  0.24492184  1
  K  K118  1  0.50006601  0.48019894  0.48212287  1
  K  K119  1  0.50244244  0.54519183  0.72722881  1
  K  K120  1  0.24844977  0.78404944  0.98326077  1
  K  K121  1  0.24696259  0.76680779  0.23850040  1
  K  K122  1  0.25314229  0.73382135  0.48894472  1
  K  K123  1  0.25595487  0.72262887  0.76489483  1
  K  K124  1  0.74359232  0.78298281  0.98334491  1
  K  K125  1  0.73873115  0.77124447  0.24627299  1
  K  K126  1  0.76730614  0.73139967  0.49554007  1
  K  K127  1  0.75121656  0.71292804  0.77157042  1
  Sr  Sr128  1  0.00284328  0.23747527  0.12779601  1
  Sr  Sr129  1  0.00090479  0.25531987  0.37678810  1
  Sr  Sr130  1  0.00263891  0.25856356  0.62357348  1
  Sr  Sr131  1  0.99896971  0.24803761  0.87542168  1
  Sr  Sr132  1  0.49714336  0.23233204  0.12963817  1
  Sr  Sr133  1  0.50085909  0.25182630  0.37586882  1
  Sr  Sr134  1  0.50050288  0.26219795  0.62210470  1
  Sr  Sr135  1  0.50101957  0.24982932  0.87319372  1
  Sr  Sr136  1  0.25341809  0.48813108  0.12810966  1
  Sr  Sr137  1  0.24924529  0.50656105  0.37552044  1
  Sr  Sr138  1  0.24828547  0.51432790  0.62163071  1
  Sr  Sr139  1  0.25327923  0.49821002  0.87674002  1
  Sr  Sr140  1  0.99843297  0.73611995  0.12736338  1
  Sr  Sr141  1  0.00091563  0.75550431  0.37380637  1
  Sr  Sr142  1  0.00166084  0.76082765  0.62305994  1
  Sr  Sr143  1  0.99888399  0.74708315  0.87559968  1
  Sr  Sr144  1  0.75213203  0.48796637  0.12696302  1
  Sr  Sr145  1  0.74881283  0.50409799  0.37476316  1
  Sr  Sr146  1  0.74939180  0.51409401  0.62191983  1
  Sr  Sr147  1  0.74671971  0.49226321  0.87832525  1
  Sr  Sr148  1  0.50000423  0.73745804  0.12556183  1
  Sr  Sr149  1  0.50247838  0.75571510  0.37519851  1
  Sr  Sr150  1  0.50049571  0.76272568  0.62182473  1
  Sr  Sr151  1  0.50067091  0.74848544  0.87638149  1
  Sr  Sr152  1  0.24994063  0.98551389  0.12699534  1
  Sr  Sr153  1  0.25043871  0.00327680  0.37680752  1
  Sr  Sr154  1  0.24695242  0.00651690  0.62453826  1
  Sr  Sr155  1  0.25102078  0.00132768  0.87315991  1
  Sr  Sr156  1  0.75263325  0.98370088  0.12770712  1
  Sr  Sr157  1  0.74958021  0.00591935  0.37460435  1
  Sr  Sr158  1  0.74883641  0.00905895  0.62282678  1
  Sr  Sr159  1  0.74856547  0.00271433  0.87153720  1
