# generated using pymatgen
data_KSrF3
_symmetry_space_group_name_H-M   'P 1'
_cell_length_a   13.48314180
_cell_length_b   13.48314180
_cell_length_c   19.06804300
_cell_angle_alpha   90.00000000
_cell_angle_beta   90.00000000
_cell_angle_gamma   90.00000000
_symmetry_Int_Tables_number   1
_chemical_formula_structural   KSrF3
_chemical_formula_sum   'K32 Sr32 F96'
_cell_volume   3466.47702914
_cell_formula_units_Z   32
loop_
 _symmetry_equiv_pos_site_id
 _symmetry_equiv_pos_as_xyz
  1  'x, y, z'
loop_
 _atom_site_type_symbol
 _atom_site_label
 _atom_site_symmetry_multiplicity
 _atom_site_fract_x
 _atom_site_fract_y
 _atom_site_fract_z
 _atom_site_occupancy
  F  F0  1  0.98808637  0.30287402  0.00017802  1
  F  F1  1  0.00862825  0.20572466  0.25097260  1
  F  F2  1  0.99167132  0.30339779  0.49986071  1
  F  F3  1  0.98669288  0.19913586  0.74921409  1
  F  F4  1  0.46097643  0.23470057  0.00207865  1
  F  F5  1  0.55325771  0.23602427  0.25244476  1
  F  F6  1  0.44796102  0.25578337  0.49888052  1
  F  F7  1  0.53891979  0.23759419  0.74894417  1
  F  F8  1  0.26661772  0.45499012  0.00330979  1
  F  F9  1  0.24968449  0.55463892  0.25217834  1
  F  F10  1  0.26656932  0.45139407  0.50121743  1
  F  F11  1  0.25755340  0.53919031  0.75205775  1
  F  F12  1  0.95329228  0.75839557  0.00237707  1
  F  F13  1  0.05272041  0.73887646  0.25107372  1
  F  F14  1  0.94962488  0.73565072  0.50011011  1
  F  F15  1  0.03987995  0.73196575  0.75079060  1
  F  F16  1  0.79633636  0.49086167  0.99984890  1
  F  F17  1  0.70137575  0.51359132  0.25023522  1
  F  F18  1  0.79246009  0.50829927  0.49994356  1
  F  F19  1  0.69334001  0.48324165  0.74929938  1
  F  F20  1  0.51749923  0.80510669  0.00010564  1
  F  F21  1  0.50595669  0.70673522  0.24959337  1
  F  F22  1  0.49345000  0.80001748  0.49973745  1
  F  F23  1  0.47707549  0.70089081  0.74990871  1
  F  F24  1  0.29679854  0.01870836  0.00108410  1
  F  F25  1  0.19847441  0.99345463  0.25212740  1
  F  F26  1  0.29438932  0.98838416  0.50177025  1
  F  F27  1  0.19192565  0.99011341  0.75076792  1
  F  F28  1  0.75237247  0.96110420  0.00100955  1
  F  F29  1  0.75375611  0.04928451  0.25192400  1
  F  F30  1  0.76238779  0.94064266  0.49844961  1
  F  F31  1  0.74211913  0.04043366  0.74728766  1
  F  F32  1  0.11783805  0.12072914  0.09404897  1
  F  F33  1  0.15944927  0.15929759  0.38991365  1
  F  F34  1  0.10421672  0.10685501  0.59320142  1
  F  F35  1  0.10626644  0.10873054  0.90593615  1
  F  F36  1  0.59357155  0.09231025  0.11612005  1
  F  F37  1  0.63931166  0.13489097  0.41195925  1
  F  F38  1  0.59017165  0.08920321  0.60162128  1
  F  F39  1  0.58793236  0.08517837  0.88642065  1
  F  F40  1  0.41541137  0.41313071  0.14398539  1
  F  F41  1  0.36422883  0.36142062  0.33890031  1
  F  F42  1  0.40064642  0.40007056  0.64436779  1
  F  F43  1  0.39684077  0.39303153  0.85353173  1
  F  F44  1  0.10649620  0.60699263  0.10465879  1
  F  F45  1  0.14183478  0.63801146  0.41143974  1
  F  F46  1  0.08477528  0.58335191  0.61125824  1
  F  F47  1  0.10798159  0.60755828  0.90926870  1
  F  F48  1  0.89843216  0.40357023  0.15419669  1
  F  F49  1  0.83883244  0.33881929  0.36212369  1
  F  F50  1  0.87878624  0.38436820  0.65499563  1
  F  F51  1  0.88782877  0.39075518  0.84415996  1
  F  F52  1  0.61409276  0.61877506  0.09141054  1
  F  F53  1  0.66299149  0.66257675  0.38660119  1
  F  F54  1  0.60387891  0.60922729  0.59217615  1
  F  F55  1  0.59892424  0.60148452  0.89864303  1
  F  F56  1  0.39147180  0.89420620  0.15778995  1
  F  F57  1  0.33811287  0.83774016  0.36362740  1
  F  F58  1  0.38513186  0.88808366  0.65866833  1
  F  F59  1  0.38274900  0.88420537  0.84581571  1
  F  F60  1  0.91447659  0.91635202  0.14005265  1
  F  F61  1  0.86354868  0.85845511  0.33871302  1
  F  F62  1  0.89440150  0.89218908  0.64637139  1
  F  F63  1  0.89031977  0.89044287  0.84493286  1
  F  F64  1  0.84765041  0.16414782  0.11278342  1
  F  F65  1  0.90534605  0.09569536  0.39419123  1
  F  F66  1  0.85758885  0.13627198  0.58968656  1
  F  F67  1  0.84344647  0.15440070  0.88931425  1
  F  F68  1  0.35763860  0.14948663  0.16221492  1
  F  F69  1  0.40424480  0.09274125  0.35968247  1
  F  F70  1  0.34031881  0.15454163  0.64060703  1
  F  F71  1  0.34269896  0.15241989  0.85759223  1
  F  F72  1  0.14337374  0.36719528  0.15884526  1
  F  F73  1  0.10752799  0.39657886  0.35036750  1
  F  F74  1  0.15237771  0.34277568  0.64134566  1
  F  F75  1  0.15154859  0.34757010  0.85960227  1
  F  F76  1  0.84709601  0.65953071  0.14256958  1
  F  F77  1  0.90807598  0.59139949  0.35481745  1
  F  F78  1  0.84943977  0.64011595  0.65197784  1
  F  F79  1  0.85977391  0.63572059  0.84441490  1
  F  F80  1  0.65975738  0.34634892  0.11313361  1
  F  F81  1  0.59986974  0.39976088  0.39473039  1
  F  F82  1  0.63644567  0.35396093  0.58809003  1
  F  F83  1  0.65582910  0.34014826  0.89094290  1
  F  F84  1  0.35915489  0.64945596  0.09800785  1
  F  F85  1  0.41055440  0.59313396  0.39268962  1
  F  F86  1  0.33884278  0.65619047  0.60606570  1
  F  F87  1  0.35984379  0.63968073  0.90962822  1
  F  F88  1  0.14668172  0.86118751  0.09885303  1
  F  F89  1  0.09873937  0.89771354  0.40239814  1
  F  F90  1  0.14224953  0.85051108  0.60147072  1
  F  F91  1  0.13365745  0.86232443  0.90961026  1
  F  F92  1  0.65947181  0.85080889  0.14567765  1
  F  F93  1  0.60045778  0.90013716  0.34995107  1
  F  F94  1  0.64232985  0.85265783  0.65091735  1
  F  F95  1  0.63911006  0.85808797  0.84024114  1
  K  K96  1  0.02957998  0.98094699  0.00802098  1
  K  K97  1  0.98877351  0.00103614  0.26519550  1
  K  K98  1  0.98470233  0.99519694  0.50662687  1
  K  K99  1  0.99126062  0.99929036  0.74755821  1
  K  K100  1  0.50068233  0.01165270  0.00235201  1
  K  K101  1  0.51200261  0.02381028  0.24436850  1
  K  K102  1  0.49891425  0.00695187  0.48500553  1
  K  K103  1  0.52490927  0.98315472  0.75283754  1
  K  K104  1  0.25315911  0.22851663  0.98143136  1
  K  K105  1  0.23284375  0.24936035  0.26176350  1
  K  K106  1  0.24431209  0.24601046  0.51996287  1
  K  K107  1  0.26347906  0.26477173  0.75071249  1
  K  K108  1  0.99819134  0.50454083  0.00524441  1
  K  K109  1  0.02684926  0.50960630  0.24504244  1
  K  K110  1  0.99611363  0.51457598  0.48929891  1
  K  K111  1  0.96603441  0.52133730  0.74255681  1
  K  K112  1  0.77512942  0.27595717  0.00116633  1
  K  K113  1  0.75658741  0.25381168  0.23462545  1
  K  K114  1  0.75854071  0.25793982  0.49146878  1
  K  K115  1  0.75702897  0.25765712  0.76986158  1
  K  K116  1  0.47564245  0.52926768  0.00438349  1
  K  K117  1  0.49435860  0.49964351  0.26742396  1
  K  K118  1  0.48842682  0.47230722  0.50605152  1
  K  K119  1  0.48862478  0.49971248  0.75361558  1
  K  K120  1  0.22970285  0.73235370  0.00101786  1
  K  K121  1  0.25650013  0.76127897  0.24461679  1
  K  K122  1  0.25707305  0.77144723  0.49491422  1
  K  K123  1  0.27328393  0.75189650  0.73768648  1
  K  K124  1  0.74375233  0.75924627  0.02758023  1
  K  K125  1  0.73231083  0.74104951  0.25740586  1
  K  K126  1  0.74650584  0.73200703  0.50877131  1
  K  K127  1  0.77038234  0.77168851  0.74895959  1
  Sr  Sr128  1  0.00463309  0.25627660  0.12652338  1
  Sr  Sr129  1  0.00043205  0.25172835  0.37638377  1
  Sr  Sr130  1  0.99502297  0.24995500  0.62437874  1
  Sr  Sr131  1  0.99891179  0.25024621  0.87395052  1
  Sr  Sr132  1  0.50217745  0.25334516  0.12787614  1
  Sr  Sr133  1  0.50065141  0.24782278  0.37537678  1
  Sr  Sr134  1  0.49899798  0.24397679  0.62383143  1
  Sr  Sr135  1  0.50119631  0.24484523  0.87505620  1
  Sr  Sr136  1  0.25766806  0.50126864  0.12787416  1
  Sr  Sr137  1  0.25431158  0.50059774  0.37724529  1
  Sr  Sr138  1  0.24586178  0.49974928  0.62535631  1
  Sr  Sr139  1  0.25023742  0.49850250  0.87792182  1
  Sr  Sr140  1  0.00068609  0.75626328  0.12796475  1
  Sr  Sr141  1  0.00119196  0.74705125  0.37558339  1
  Sr  Sr142  1  0.99966354  0.74327291  0.62474676  1
  Sr  Sr143  1  0.99789572  0.74825685  0.87625113  1
  Sr  Sr144  1  0.74921170  0.50470632  0.12626521  1
  Sr  Sr145  1  0.75088067  0.50014102  0.37395426  1
  Sr  Sr146  1  0.74000718  0.49489150  0.62431034  1
  Sr  Sr147  1  0.74431546  0.49935427  0.87408867  1
  Sr  Sr148  1  0.50288551  0.75717413  0.12543341  1
  Sr  Sr149  1  0.50067070  0.75067964  0.37560972  1
  Sr  Sr150  1  0.49576090  0.74991278  0.62403760  1
  Sr  Sr151  1  0.49949250  0.75075710  0.87564497  1
  Sr  Sr152  1  0.25324769  0.00758215  0.12849020  1
  Sr  Sr153  1  0.24787652  0.99941562  0.37681568  1
  Sr  Sr154  1  0.24611366  0.99882831  0.62694487  1
  Sr  Sr155  1  0.24701263  0.99784054  0.87392434  1
  Sr  Sr156  1  0.75569738  0.00686968  0.12624320  1
  Sr  Sr157  1  0.75128492  0.99676853  0.37548874  1
  Sr  Sr158  1  0.74551389  0.99876093  0.62093646  1
  Sr  Sr159  1  0.74797225  0.99966231  0.87502819  1
