# generated using pymatgen
data_KTlF3
_symmetry_space_group_name_H-M   'P 1'
_cell_length_a   13.19168370
_cell_length_b   13.19168370
_cell_length_c   18.65585800
_cell_angle_alpha   90.00000000
_cell_angle_beta   90.00000000
_cell_angle_gamma   90.00000000
_symmetry_Int_Tables_number   1
_chemical_formula_structural   KTlF3
_chemical_formula_sum   'K32 Tl32 F96'
_cell_volume   3246.50208890
_cell_formula_units_Z   32
loop_
 _symmetry_equiv_pos_site_id
 _symmetry_equiv_pos_as_xyz
  1  'x, y, z'
loop_
 _atom_site_type_symbol
 _atom_site_label
 _atom_site_symmetry_multiplicity
 _atom_site_fract_x
 _atom_site_fract_y
 _atom_site_fract_z
 _atom_site_occupancy
  K  K0  1  0.99352238  0.01643545  0.99657437  1
  K  K1  1  0.98730389  0.01281630  0.25087641  1
  K  K2  1  0.99160488  0.98265092  0.51018950  1
  K  K3  1  0.00302202  0.00356711  0.75670521  1
  K  K4  1  0.51541224  -0.00065550  0.00232720  1
  K  K5  1  0.51342537  0.98586447  0.25468468  1
  K  K6  1  0.50580450  -0.00072394  0.48858662  1
  K  K7  1  0.49405261  0.01026787  0.73924755  1
  K  K8  1  0.26075678  0.26316992  0.01662028  1
  K  K9  1  0.24094741  0.23218504  0.25057417  1
  K  K10  1  0.26832961  0.21556291  0.50686222  1
  K  K11  1  0.26532798  0.24925396  0.74516221  1
  K  K12  1  0.99954322  0.49744327  0.99451667  1
  K  K13  1  0.00906696  0.51664164  0.24048231  1
  K  K14  1  0.01258565  0.48750556  0.49948042  1
  K  K15  1  0.00791021  0.48299789  0.75435843  1
  K  K16  1  0.73508668  0.24703228  0.00366321  1
  K  K17  1  0.73223941  0.28386853  0.24203957  1
  K  K18  1  0.75929014  0.26719073  0.49968141  1
  K  K19  1  0.73863624  0.23535873  0.73375579  1
  K  K20  1  0.50559803  0.48990074  0.01156634  1
  K  K21  1  0.49590295  0.50124117  0.26135880  1
  K  K22  1  0.48769442  0.51337628  0.49658195  1
  K  K23  1  0.48481996  0.50030541  0.74718746  1
  K  K24  1  0.25261148  0.76527904  0.99095547  1
  K  K25  1  0.24568415  0.75311752  0.23266946  1
  K  K26  1  0.23134172  0.74589633  0.50092147  1
  K  K27  1  0.25192592  0.76626260  0.75564926  1
  K  K28  1  0.74757379  0.73219624  0.99524391  1
  K  K29  1  0.76863679  0.75586987  0.25038782  1
  K  K30  1  0.75442204  0.74571986  0.51770335  1
  K  K31  1  0.74785725  0.73259107  0.76030452  1
  Tl  Tl32  1  0.98793318  0.24992398  0.12734966  1
  Tl  Tl33  1  0.00013618  0.24975745  0.37517552  1
  Tl  Tl34  1  0.01136215  0.24968804  0.62238835  1
  Tl  Tl35  1  0.00021329  0.24995572  0.87541702  1
  Tl  Tl36  1  0.49623180  0.24052983  0.13496792  1
  Tl  Tl37  1  0.50057531  0.24980857  0.37454031  1
  Tl  Tl38  1  0.50387204  0.25864075  0.61473689  1
  Tl  Tl39  1  0.49987433  0.25013814  0.87496959  1
  Tl  Tl40  1  0.25470653  0.50399019  0.12764732  1
  Tl  Tl41  1  0.23637830  0.48161541  0.37094601  1
  Tl  Tl42  1  0.24758370  0.49902532  0.62663909  1
  Tl  Tl43  1  0.25302584  0.49542137  0.87823060  1
  Tl  Tl44  1  0.00658246  0.75826564  0.11364035  1
  Tl  Tl45  1  0.00024916  0.74976476  0.37516583  1
  Tl  Tl46  1  0.99291311  0.74252391  0.63715485  1
  Tl  Tl47  1  -0.00010579  0.75057014  0.87499987  1
  Tl  Tl48  1  0.75383892  0.50557440  0.12689154  1
  Tl  Tl49  1  0.75017233  0.51722581  0.38022820  1
  Tl  Tl50  1  0.74836370  0.49704454  0.62767167  1
  Tl  Tl51  1  0.74222339  0.48917236  0.86511984  1
  Tl  Tl52  1  0.50359525  0.74729444  0.12806638  1
  Tl  Tl53  1  0.50009180  0.74970717  0.37571140  1
  Tl  Tl54  1  0.49650778  0.75273865  0.62300814  1
  Tl  Tl55  1  0.49972708  0.74959910  0.87547545  1
  Tl  Tl56  1  0.25190472  0.00205383  0.12289955  1
  Tl  Tl57  1  0.25079635  0.98177339  0.36927788  1
  Tl  Tl58  1  0.24649499  0.99485746  0.62302705  1
  Tl  Tl59  1  0.25846530  0.01055658  0.88577154  1
  Tl  Tl60  1  0.75155585  0.00038524  0.12344764  1
  Tl  Tl61  1  0.76436328  0.01830063  0.37995748  1
  Tl  Tl62  1  0.74508323  0.99476871  0.62305082  1
  Tl  Tl63  1  0.74864227  0.00183576  0.87166588  1
  F  F64  1  0.93833588  0.21410084  0.98575918  1
  F  F65  1  0.91154772  0.20483933  0.27665755  1
  F  F66  1  0.08853266  0.29491907  0.47367967  1
  F  F67  1  0.06203855  0.28408197  0.76480003  1
  F  F68  1  0.52408003  0.27125626  0.99485335  1
  F  F69  1  0.54943481  0.18217412  0.26978647  1
  F  F70  1  0.45225481  0.31711490  0.47946839  1
  F  F71  1  0.47626942  0.22889518  0.75505377  1
  F  F72  1  0.29981551  0.47428845  0.01339524  1
  F  F73  1  0.22142931  0.54683204  0.24234084  1
  F  F74  1  0.22675488  0.53878532  0.51054462  1
  F  F75  1  0.27716819  0.46083460  0.74269801  1
  F  F76  1  0.05794111  0.69468746  0.98084034  1
  F  F77  1  0.97748804  0.72709968  0.25545228  1
  F  F78  1  0.02259779  0.77274440  0.49491104  1
  F  F79  1  0.94130785  0.80719554  0.76948695  1
  F  F80  1  0.71559328  0.50859664  0.00886581  1
  F  F81  1  0.80036319  0.49048012  0.24339779  1
  F  F82  1  0.68013291  0.45687289  0.52052767  1
  F  F83  1  0.81835109  0.53822706  0.73421002  1
  F  F84  1  0.53332018  0.69320836  0.98722563  1
  F  F85  1  0.43837968  0.79501476  0.26773656  1
  F  F86  1  0.56140422  0.70461485  0.48387715  1
  F  F87  1  0.46515697  0.80722980  0.76422348  1
  F  F88  1  0.18207671  0.95972657  0.01653275  1
  F  F89  1  0.32153172  0.04361774  0.22925562  1
  F  F90  1  0.20113413  0.00567831  0.50608744  1
  F  F91  1  0.28318734  -0.00038637  0.74129471  1
  F  F92  1  0.72293578  0.03587228  0.00685306  1
  F  F93  1  0.77018172  0.96319316  0.24011659  1
  F  F94  1  0.77899133  0.95226316  0.50835730  1
  F  F95  1  0.69922751  0.02524188  0.73703626  1
  F  F96  1  0.15960110  0.14581712  0.12549730  1
  F  F97  1  0.11181472  0.12803936  0.34233371  1
  F  F98  1  0.17662843  0.14864722  0.63637666  1
  F  F99  1  0.08372461  0.10083701  0.87772171  1
  F  F100  1  0.68352340  0.15593577  0.13533245  1
  F  F101  1  0.62047923  0.15580319  0.42910203  1
  F  F102  1  0.67977161  0.15034618  0.60302627  1
  F  F103  1  0.54998060  0.08679029  0.87643565  1
  F  F104  1  0.31999915  0.34835598  0.14686309  1
  F  F105  1  0.38063120  0.34392889  0.32027438  1
  F  F106  1  0.31735956  0.34476462  0.61259883  1
  F  F107  1  0.44961142  0.41354201  0.87367383  1
  F  F108  1  0.18998310  0.65918223  0.10814076  1
  F  F109  1  0.05185678  0.58713949  0.37885180  1
  F  F110  1  0.17585057  0.64934939  0.65086697  1
  F  F111  1  0.09659137  0.62991423  0.82438399  1
  F  F112  1  0.82380663  0.35273024  0.10945166  1
  F  F113  1  0.88853160  0.37127822  0.40833369  1
  F  F114  1  0.83958505  0.35278549  0.62477717  1
  F  F115  1  0.91750239  0.39954762  0.87360804  1
  F  F116  1  0.68282107  0.65771408  0.13936307  1
  F  F117  1  0.61490617  0.65282035  0.31812460  1
  F  F118  1  0.65785128  0.63944761  0.64125956  1
  F  F119  1  0.59291459  0.62590807  0.82531446  1
  F  F120  1  0.34066722  0.85829964  0.11051909  1
  F  F121  1  0.38574139  0.84719598  0.43326457  1
  F  F122  1  0.31625705  0.84160937  0.61428019  1
  F  F123  1  0.40638757  0.87324849  0.92558017  1
  F  F124  1  0.82209093  0.84883832  0.10134136  1
  F  F125  1  0.94815941  0.91219778  0.37103290  1
  F  F126  1  0.80795332  0.83879459  0.64246285  1
  F  F127  1  0.90334141  0.87091922  0.92628155  1
  F  F128  1  0.91000478  0.06508583  0.12187888  1
  F  F129  1  0.90597103  0.14463294  0.44334316  1
  F  F130  1  0.89881155  0.06569673  0.63694686  1
  F  F131  1  0.88072877  0.15713483  0.82063892  1
  F  F132  1  0.37017037  0.09904821  0.06809563  1
  F  F133  1  0.38976781  0.12360864  0.40008561  1
  F  F134  1  0.39047791  0.08179935  0.59753471  1
  F  F135  1  0.33567746  0.20744596  0.88598501  1
  F  F136  1  0.10102091  0.43256153  0.11428328  1
  F  F137  1  0.09461895  0.35467313  0.30716275  1
  F  F138  1  0.08949536  0.43342140  0.62847355  1
  F  F139  1  0.11922688  0.34275527  0.93070166  1
  F  F140  1  0.90327437  0.58493139  0.10688256  1
  F  F141  1  0.83708834  0.70454365  0.38785132  1
  F  F142  1  0.86726950  0.58797530  0.56950605  1
  F  F143  1  0.86358457  0.64767080  0.88883910  1
  F  F144  1  0.61009440  0.41772562  0.15182001  1
  F  F145  1  0.61140471  0.37587716  0.34881152  1
  F  F146  1  0.62920724  0.39971669  0.68122780  1
  F  F147  1  0.66407829  0.29284839  0.86396082  1
  F  F148  1  0.41133082  0.57017456  0.14033797  1
  F  F149  1  0.40525829  0.60659629  0.37893682  1
  F  F150  1  0.40482941  0.56691879  0.62210369  1
  F  F151  1  0.35080401  0.66547512  0.86887990  1
  F  F152  1  0.13329128  0.91210228  0.18212767  1
  F  F153  1  0.16351256  0.79471182  0.36280412  1
  F  F154  1  0.09691176  0.91617964  0.64349644  1
  F  F155  1  0.13552210  0.85414999  0.85992852  1
  F  F156  1  0.59361739  0.93406945  0.12815983  1
  F  F157  1  0.59556828  0.89238797  0.37230618  1
  F  F158  1  0.58818799  0.92940246  0.60994256  1
  F  F159  1  0.64880118  0.83335289  0.88219646  1
