# generated using pymatgen
data_KZnBr3
_symmetry_space_group_name_H-M   'P 1'
_cell_length_a   14.96774502
_cell_length_b   14.96774502
_cell_length_c   21.16758900
_cell_angle_alpha   90.00000000
_cell_angle_beta   90.00000000
_cell_angle_gamma   90.00000000
_symmetry_Int_Tables_number   1
_chemical_formula_structural   KZnBr3
_chemical_formula_sum   'K32 Zn32 Br96'
_cell_volume   4742.24674019
_cell_formula_units_Z   32
loop_
 _symmetry_equiv_pos_site_id
 _symmetry_equiv_pos_as_xyz
  1  'x, y, z'
loop_
 _atom_site_type_symbol
 _atom_site_label
 _atom_site_symmetry_multiplicity
 _atom_site_fract_x
 _atom_site_fract_y
 _atom_site_fract_z
 _atom_site_occupancy
  Br  Br0  1  0.03988893  0.29599141  0.01613603  1
  Br  Br1  1  0.01884039  0.22554175  0.20632232  1
  Br  Br2  1  0.03542451  0.26858590  0.49792437  1
  Br  Br3  1  0.91855729  0.20514629  0.75446084  1
  Br  Br4  1  0.55836878  0.20610478  0.98511070  1
  Br  Br5  1  0.44598850  0.29852009  0.24861443  1
  Br  Br6  1  0.51062294  0.20836253  0.51831546  1
  Br  Br7  1  0.52228365  0.28331116  0.78957841  1
  Br  Br8  1  0.19969392  0.47318649  0.97201253  1
  Br  Br9  1  0.31675927  0.51341883  0.29175154  1
  Br  Br10  1  0.20364456  0.47631901  0.48071970  1
  Br  Br11  1  0.32068898  0.44996378  0.78981808  1
  Br  Br12  1  0.02844348  0.69456802  0.99519166  1
  Br  Br13  1  0.98815116  0.80002916  0.27510141  1
  Br  Br14  1  0.97253347  0.71262452  0.46549265  1
  Br  Br15  1  0.97601872  0.80490887  0.73410565  1
  Br  Br16  1  0.77627907  0.56490523  0.98720226  1
  Br  Br17  1  0.69127457  0.43656277  0.26441666  1
  Br  Br18  1  0.74846830  0.49533402  0.47072877  1
  Br  Br19  1  0.73774982  0.52191076  0.77365108  1
  Br  Br20  1  0.52401809  0.78028141  0.03560154  1
  Br  Br21  1  0.47513395  0.69949890  0.23175027  1
  Br  Br22  1  0.56679495  0.82016563  0.50080625  1
  Br  Br23  1  0.40582778  0.68092385  0.73520204  1
  Br  Br24  1  0.29411183  0.91871337  0.99558634  1
  Br  Br25  1  0.19705898  0.01301215  0.23123811  1
  Br  Br26  1  0.23919644  0.06452026  0.51822216  1
  Br  Br27  1  0.21174885  0.97350773  0.72005432  1
  Br  Br28  1  0.70156250  0.02398991  0.02951101  1
  Br  Br29  1  0.77761118  0.03161884  0.23449987  1
  Br  Br30  1  0.68478707  0.01827514  0.53595698  1
  Br  Br31  1  0.78788525  0.97527313  0.73337572  1
  Br  Br32  1  0.18018510  0.10641887  0.07221971  1
  Br  Br33  1  0.06368581  0.10293860  0.35704029  1
  Br  Br34  1  0.12156598  0.17414105  0.65535442  1
  Br  Br35  1  0.16741588  0.07221731  0.87626619  1
  Br  Br36  1  0.63732961  0.19413018  0.15320913  1
  Br  Br37  1  0.63009173  0.23677386  0.36969116  1
  Br  Br38  1  0.67131393  0.16397603  0.66798612  1
  Br  Br39  1  0.71218323  0.13611186  0.86430223  1
  Br  Br40  1  0.37166456  0.30509651  0.08457680  1
  Br  Br41  1  0.36934697  0.32160919  0.42203666  1
  Br  Br42  1  0.37042240  0.33535679  0.64783419  1
  Br  Br43  1  0.43277792  0.42007248  0.93358995  1
  Br  Br44  1  0.17192315  0.63928206  0.17755221  1
  Br  Br45  1  0.10236689  0.58900634  0.34636840  1
  Br  Br46  1  0.05448040  0.64356336  0.61446338  1
  Br  Br47  1  0.12494356  0.59375822  0.81767457  1
  Br  Br48  1  0.85056741  0.38434026  0.13143853  1
  Br  Br49  1  0.91326181  0.35884169  0.35715275  1
  Br  Br50  1  0.88073093  0.36014834  0.61866010  1
  Br  Br51  1  0.93696260  0.42109650  0.87364670  1
  Br  Br52  1  0.68047013  0.63274811  0.14205160  1
  Br  Br53  1  0.62852707  0.69584231  0.36084980  1
  Br  Br54  1  0.54847363  0.61925343  0.59908492  1
  Br  Br55  1  0.58794469  0.66900429  0.85820668  1
  Br  Br56  1  0.32549401  0.84279730  0.15345713  1
  Br  Br57  1  0.40851076  0.86673089  0.35327839  1
  Br  Br58  1  0.34557131  0.82726033  0.58655204  1
  Br  Br59  1  0.38788668  0.88779463  0.82191728  1
  Br  Br60  1  0.83265453  0.84057543  0.11571771  1
  Br  Br61  1  0.82512956  0.87612139  0.38994783  1
  Br  Br62  1  0.85035799  0.85316622  0.57753117  1
  Br  Br63  1  0.87562498  0.90632483  0.90424161  1
  Br  Br64  1  0.92140003  0.07455104  0.07959968  1
  Br  Br65  1  0.83676578  0.13153646  0.40795746  1
  Br  Br66  1  0.90911473  0.10014304  0.58483008  1
  Br  Br67  1  0.94317234  0.14108800  0.91357169  1
  Br  Br68  1  0.41676194  0.08101387  0.12807688  1
  Br  Br69  1  0.34034927  0.10648193  0.36131323  1
  Br  Br70  1  0.41865354  0.06707358  0.66474482  1
  Br  Br71  1  0.40489710  0.11309003  0.88321879  1
  Br  Br72  1  0.16933819  0.40261576  0.14052262  1
  Br  Br73  1  0.15878463  0.32987127  0.32514756  1
  Br  Br74  1  0.11135351  0.41038056  0.66010949  1
  Br  Br75  1  0.14143141  0.31088987  0.83108321  1
  Br  Br76  1  0.92463246  0.62306858  0.15035694  1
  Br  Br77  1  0.84060469  0.59972188  0.32042443  1
  Br  Br78  1  0.80862521  0.61685303  0.61963530  1
  Br  Br79  1  0.88768987  0.66522879  0.84952251  1
  Br  Br80  1  0.60381548  0.42248877  0.08502865  1
  Br  Br81  1  0.53299635  0.48176044  0.38432464  1
  Br  Br82  1  0.62823141  0.39430249  0.61931543  1
  Br  Br83  1  0.69966204  0.36956745  0.91094439  1
  Br  Br84  1  0.38131527  0.57564360  0.08885295  1
  Br  Br85  1  0.37999362  0.64384110  0.44218690  1
  Br  Br86  1  0.29702898  0.58216765  0.61803569  1
  Br  Br87  1  0.34304590  0.66620869  0.91724764  1
  Br  Br88  1  0.08161038  0.86426126  0.11756847  1
  Br  Br89  1  0.16328508  0.87900941  0.39266080  1
  Br  Br90  1  0.10030659  0.88469247  0.57316598  1
  Br  Br91  1  0.12582923  0.83618867  0.86315899  1
  Br  Br92  1  0.59010646  0.91358827  0.18342796  1
  Br  Br93  1  0.59870311  0.98507361  0.37466616  1
  Br  Br94  1  0.58692904  0.85600869  0.67980509  1
  Br  Br95  1  0.62329835  0.89648461  0.88578366  1
  K  K96  1  0.05338434  0.95921023  0.98443029  1
  K  K97  1  0.98466543  0.00291057  0.21808608  1
  K  K98  1  0.98442649  0.97338879  0.46278889  1
  K  K99  1  0.00036663  0.00294330  0.78764429  1
  K  K100  1  0.49685450  0.99030065  0.99753981  1
  K  K101  1  0.52080708  0.09325213  0.26366730  1
  K  K102  1  0.43780229  0.99705662  0.48220803  1
  K  K103  1  0.56355507  0.03445659  0.77660404  1
  K  K104  1  0.25064630  0.24774900  0.95719076  1
  K  K105  1  0.25163837  0.22303041  0.20964023  1
  K  K106  1  0.23521918  0.27459211  0.54047468  1
  K  K107  1  0.29400322  0.19133929  0.75924754  1
  K  K108  1  0.98243807  0.49719716  0.03277629  1
  K  K109  1  0.01502722  0.46496597  0.23814461  1
  K  K110  1  0.98379776  0.48687785  0.49967942  1
  K  K111  1  0.95314092  0.52591486  0.72641031  1
  K  K112  1  0.79058502  0.23057685  0.01483627  1
  K  K113  1  0.79675429  0.24121579  0.26074150  1
  K  K114  1  0.73533581  0.25070687  0.51530665  1
  K  K115  1  0.73598786  0.31112300  0.76218010  1
  K  K116  1  0.55028458  0.57704897  0.99151985  1
  K  K117  1  0.49428423  0.49773297  0.20854975  1
  K  K118  1  0.43546940  0.46518318  0.52883970  1
  K  K119  1  0.52221644  0.50090713  0.74177972  1
  K  K120  1  0.22863249  0.72255649  0.04381387  1
  K  K121  1  0.26899618  0.72675542  0.29676853  1
  K  K122  1  0.19529991  0.70562796  0.50030867  1
  K  K123  1  0.20570601  0.75529104  0.71340067  1
  K  K124  1  0.74666343  0.77442967  0.98627612  1
  K  K125  1  0.75391518  0.78559099  0.25212754  1
  K  K126  1  0.75775430  0.71944725  0.48198471  1
  K  K127  1  0.74889022  0.75873260  0.75024478  1
  Zn  Zn128  1  0.03153139  0.18737938  0.09714944  1
  Zn  Zn129  1  0.03611648  0.26254744  0.38567206  1
  Zn  Zn130  1  0.96794572  0.23120722  0.64473323  1
  Zn  Zn131  1  0.99557444  0.26316586  0.85462622  1
  Zn  Zn132  1  0.53505606  0.27510314  0.08884161  1
  Zn  Zn133  1  0.50366113  0.32700301  0.35224685  1
  Zn  Zn134  1  0.52968331  0.15586610  0.62013909  1
  Zn  Zn135  1  0.54392916  0.31818077  0.89901534  1
  Zn  Zn136  1  0.28784230  0.45180133  0.07544917  1
  Zn  Zn137  1  0.26195779  0.43543884  0.37948030  1
  Zn  Zn138  1  0.26152592  0.45310209  0.67747665  1
  Zn  Zn139  1  0.25897779  0.54056083  0.87407134  1
  Zn  Zn140  1  0.04050328  0.72834439  0.17209894  1
  Zn  Zn141  1  0.97518520  0.68258650  0.35508459  1
  Zn  Zn142  1  0.98540267  0.78864891  0.62361990  1
  Zn  Zn143  1  0.03965889  0.70520095  0.88341356  1
  Zn  Zn144  1  0.73254931  0.48570954  0.15370763  1
  Zn  Zn145  1  0.68630835  0.53810371  0.36098873  1
  Zn  Zn146  1  0.68794093  0.53057623  0.58210178  1
  Zn  Zn147  1  0.79566465  0.51232996  0.88122331  1
  Zn  Zn148  1  0.48702825  0.79726607  0.14476614  1
  Zn  Zn149  1  0.48419211  0.75410092  0.41078542  1
  Zn  Zn150  1  0.49490835  0.78234281  0.60541342  1
  Zn  Zn151  1  0.44441860  0.73376103  0.83637186  1
  Zn  Zn152  1  0.28196416  0.99573464  0.12790338  1
  Zn  Zn153  1  0.21324353  0.01687565  0.35006777  1
  Zn  Zn154  1  0.18004815  0.02076534  0.61672090  1
  Zn  Zn155  1  0.30073470  0.98716339  0.89225439  1
  Zn  Zn156  1  0.73752699  0.96416664  0.13460072  1
  Zn  Zn157  1  0.73966224  0.00684291  0.41908673  1
  Zn  Zn158  1  0.78919340  0.99899695  0.62347509  1
  Zn  Zn159  1  0.74516714  0.99636950  0.90957359  1
