# generated using pymatgen
data_KZnCl3
_symmetry_space_group_name_H-M   'P 1'
_cell_length_a   14.05813417
_cell_length_b   14.05813417
_cell_length_c   19.88120400
_cell_angle_alpha   90.00000000
_cell_angle_beta   90.00000000
_cell_angle_gamma   90.00000000
_symmetry_Int_Tables_number   1
_chemical_formula_structural   KZnCl3
_chemical_formula_sum   'K32 Zn32 Cl96'
_cell_volume   3929.14493643
_cell_formula_units_Z   32
loop_
 _symmetry_equiv_pos_site_id
 _symmetry_equiv_pos_as_xyz
  1  'x, y, z'
loop_
 _atom_site_type_symbol
 _atom_site_label
 _atom_site_symmetry_multiplicity
 _atom_site_fract_x
 _atom_site_fract_y
 _atom_site_fract_z
 _atom_site_occupancy
  Cl  Cl0  1  0.04997197  0.25194760  0.97447429  1
  Cl  Cl1  1  0.95205679  0.24807988  0.25701013  1
  Cl  Cl2  1  0.05243693  0.26127117  0.47274943  1
  Cl  Cl3  1  0.95234650  0.22604772  0.76013531  1
  Cl  Cl4  1  0.50640721  0.20431730  0.98497741  1
  Cl  Cl5  1  0.50487503  0.26518620  0.26824612  1
  Cl  Cl6  1  0.48280097  0.19403792  0.48395309  1
  Cl  Cl7  1  0.48988499  0.29528535  0.75786321  1
  Cl  Cl8  1  0.19753848  0.48930704  0.98418818  1
  Cl  Cl9  1  0.30190479  0.52727733  0.27005646  1
  Cl  Cl10  1  0.21117335  0.50562378  0.48311172  1
  Cl  Cl11  1  0.29343582  0.51630852  0.76761751  1
  Cl  Cl12  1  0.01282640  0.69509551  0.01051095  1
  Cl  Cl13  1  0.00825358  0.79773953  0.23662787  1
  Cl  Cl14  1  0.00356195  0.68648930  0.51630793  1
  Cl  Cl15  1  0.00559914  0.76979062  0.72617148  1
  Cl  Cl16  1  0.74222204  0.53027731  0.02371293  1
  Cl  Cl17  1  0.75215347  0.45058826  0.22611528  1
  Cl  Cl18  1  0.69570899  0.57044774  0.49767362  1
  Cl  Cl19  1  0.73790651  0.45407857  0.74951698  1
  Cl  Cl20  1  0.55753914  0.76304062  0.01669921  1
  Cl  Cl21  1  0.45843260  0.76902547  0.24350040  1
  Cl  Cl22  1  0.52955237  0.75831883  0.52489312  1
  Cl  Cl23  1  0.46250206  0.74518941  0.74016531  1
  Cl  Cl24  1  0.26320292  0.04258400  0.00651291  1
  Cl  Cl25  1  0.24690220  0.99336033  0.21525723  1
  Cl  Cl26  1  0.21780997  0.05574767  0.50545204  1
  Cl  Cl27  1  0.26525570  0.94377697  0.75130061  1
  Cl  Cl28  1  0.69342165  0.99773669  0.99795974  1
  Cl  Cl29  1  0.80533987  0.02286659  0.24399757  1
  Cl  Cl30  1  0.71294107  0.00535455  0.52251340  1
  Cl  Cl31  1  0.79945166  0.02136768  0.72740147  1
  Cl  Cl32  1  0.11782008  0.17039791  0.12586810  1
  Cl  Cl33  1  0.10234930  0.08363728  0.34371969  1
  Cl  Cl34  1  0.11095665  0.07333304  0.65667034  1
  Cl  Cl35  1  0.13624289  0.11304200  0.84999079  1
  Cl  Cl36  1  0.66643591  0.15814586  0.13758669  1
  Cl  Cl37  1  0.62800570  0.08852968  0.36498882  1
  Cl  Cl38  1  0.59050283  0.09663425  0.65277531  1
  Cl  Cl39  1  0.63832411  0.14970755  0.84236660  1
  Cl  Cl40  1  0.32976867  0.38629096  0.12651756  1
  Cl  Cl41  1  0.37986415  0.39241826  0.40093256  1
  Cl  Cl42  1  0.34827727  0.39740801  0.62056033  1
  Cl  Cl43  1  0.36780718  0.36456112  0.89583856  1
  Cl  Cl44  1  0.16923309  0.64748653  0.14694414  1
  Cl  Cl45  1  0.11634143  0.61835507  0.34868251  1
  Cl  Cl46  1  0.11294304  0.57665670  0.64652755  1
  Cl  Cl47  1  0.10964617  0.63289187  0.84930208  1
  Cl  Cl48  1  0.87181005  0.33270939  0.09694814  1
  Cl  Cl49  1  0.86868267  0.42214707  0.39821920  1
  Cl  Cl50  1  0.82189458  0.39169324  0.59651423  1
  Cl  Cl51  1  0.86345384  0.34608454  0.89739613  1
  Cl  Cl52  1  0.65313573  0.66690483  0.16569323  1
  Cl  Cl53  1  0.64125130  0.59850386  0.32914196  1
  Cl  Cl54  1  0.59048696  0.57661361  0.64831105  1
  Cl  Cl55  1  0.61965864  0.65513529  0.86836040  1
  Cl  Cl56  1  0.36251885  0.84529391  0.09694326  1
  Cl  Cl57  1  0.33860691  0.89975422  0.37986851  1
  Cl  Cl58  1  0.39406464  0.92187316  0.60672710  1
  Cl  Cl59  1  0.42016861  0.88362746  0.89178690  1
  Cl  Cl60  1  0.84058636  0.84040303  0.10218568  1
  Cl  Cl61  1  0.85934767  0.90849126  0.39510091  1
  Cl  Cl62  1  0.90255515  0.89468898  0.58587177  1
  Cl  Cl63  1  0.91765786  0.84777048  0.88328313  1
  Cl  Cl64  1  0.88615583  0.08155835  0.09015505  1
  Cl  Cl65  1  0.86118674  0.16613601  0.39838014  1
  Cl  Cl66  1  0.88787857  0.15973061  0.59347169  1
  Cl  Cl67  1  0.87327199  0.09091677  0.88993254  1
  Cl  Cl68  1  0.40781126  0.13636332  0.13420324  1
  Cl  Cl69  1  0.34223434  0.14444465  0.35148098  1
  Cl  Cl70  1  0.34153903  0.16100369  0.63810523  1
  Cl  Cl71  1  0.38165995  0.11233692  0.84721086  1
  Cl  Cl72  1  0.08422329  0.42339597  0.15257086  1
  Cl  Cl73  1  0.13794242  0.35840790  0.32550717  1
  Cl  Cl74  1  0.10670686  0.33524024  0.63640809  1
  Cl  Cl75  1  0.11011138  0.38832788  0.82580889  1
  Cl  Cl76  1  0.91135239  0.60742968  0.14740643  1
  Cl  Cl77  1  0.86753897  0.66999250  0.36648869  1
  Cl  Cl78  1  0.84512891  0.63928047  0.64091972  1
  Cl  Cl79  1  0.85813109  0.58976204  0.87412933  1
  Cl  Cl80  1  0.57772540  0.38053625  0.10457441  1
  Cl  Cl81  1  0.62911252  0.36132238  0.40001832  1
  Cl  Cl82  1  0.58158286  0.34005604  0.60312935  1
  Cl  Cl83  1  0.62153875  0.39264182  0.90015922  1
  Cl  Cl84  1  0.41282572  0.60472070  0.11262805  1
  Cl  Cl85  1  0.40470842  0.64619503  0.39707134  1
  Cl  Cl86  1  0.34748397  0.65026312  0.60637050  1
  Cl  Cl87  1  0.37614863  0.62950229  0.90462737  1
  Cl  Cl88  1  0.09995083  0.88573936  0.08641937  1
  Cl  Cl89  1  0.09872188  0.85587751  0.40166792  1
  Cl  Cl90  1  0.16427921  0.84682794  0.59955972  1
  Cl  Cl91  1  0.17142057  0.86610975  0.90726153  1
  Cl  Cl92  1  0.61708540  0.91709339  0.15375854  1
  Cl  Cl93  1  0.61344144  0.84566982  0.37079028  1
  Cl  Cl94  1  0.66423691  0.83415640  0.65965624  1
  Cl  Cl95  1  0.66775803  0.88758079  0.84675078  1
  K  K96  1  0.03199046  0.02874634  0.98286252  1
  K  K97  1  0.01579018  0.01155548  0.20924352  1
  K  K98  1  0.99649303  0.03141289  0.48711758  1
  K  K99  1  0.00021787  0.98109503  0.77178049  1
  K  K100  1  0.48410949  0.98816027  0.02058330  1
  K  K101  1  0.47916356  0.00348139  0.26024625  1
  K  K102  1  0.50371082  0.97450697  0.48041957  1
  K  K103  1  0.50002883  0.96254144  0.75345478  1
  K  K104  1  0.26318466  0.26157724  0.01145674  1
  K  K105  1  0.26596625  0.23866848  0.22932360  1
  K  K106  1  0.26503203  0.27407822  0.50805600  1
  K  K107  1  0.26205640  0.26778011  0.75610474  1
  K  K108  1  0.97400160  0.47706293  0.00492386  1
  K  K109  1  0.96403410  0.49998818  0.27366582  1
  K  K110  1  0.00044387  0.46518793  0.52335982  1
  K  K111  1  0.96040577  0.50318892  0.74134130  1
  K  K112  1  0.74623170  0.22494217  0.99664612  1
  K  K113  1  0.72973886  0.24706693  0.27252469  1
  K  K114  1  0.71205852  0.22794366  0.50697336  1
  K  K115  1  0.73735311  0.24045246  0.71297351  1
  K  K116  1  0.51304906  0.51495579  0.99596745  1
  K  K117  1  0.51167098  0.48159664  0.23193131  1
  K  K118  1  0.47772784  0.51111621  0.51529025  1
  K  K119  1  0.50956762  0.51208773  0.78269583  1
  K  K120  1  0.24543583  0.70619748  0.01228029  1
  K  K121  1  0.23330616  0.77250569  0.26719009  1
  K  K122  1  0.25208374  0.73953848  0.48271712  1
  K  K123  1  0.23535212  0.73255701  0.73828071  1
  K  K124  1  0.76697753  0.74599321  0.97448646  1
  K  K125  1  0.77698495  0.80050123  0.25769191  1
  K  K126  1  0.75292892  0.78072168  0.49647865  1
  K  K127  1  0.78610561  0.74321790  0.76967748  1
  Zn  Zn128  1  0.00269603  0.27668705  0.14354184  1
  Zn  Zn129  1  0.02488367  0.23270787  0.36357815  1
  Zn  Zn130  1  0.01504482  0.20990011  0.64855764  1
  Zn  Zn131  1  0.00942568  0.26812583  0.86647974  1
  Zn  Zn132  1  0.52759190  0.23212810  0.10736643  1
  Zn  Zn133  1  0.47918878  0.26248069  0.38097274  1
  Zn  Zn134  1  0.49195793  0.22234487  0.64496054  1
  Zn  Zn135  1  0.49641173  0.24034781  0.86968501  1
  Zn  Zn136  1  0.23340953  0.50293370  0.16257252  1
  Zn  Zn137  1  0.23051362  0.47994134  0.37161239  1
  Zn  Zn138  1  0.26083946  0.52319975  0.64257996  1
  Zn  Zn139  1  0.23797536  0.48170366  0.87562515  1
  Zn  Zn140  1  0.98193401  0.76120150  0.12622852  1
  Zn  Zn141  1  0.00874194  0.72542926  0.39864007  1
  Zn  Zn142  1  0.01401313  0.78154946  0.61323821  1
  Zn  Zn143  1  0.04209300  0.75474558  0.90329719  1
  Zn  Zn144  1  0.75775643  0.54335585  0.13460220  1
  Zn  Zn145  1  0.72747474  0.49454631  0.39797290  1
  Zn  Zn146  1  0.73924018  0.52670671  0.61092949  1
  Zn  Zn147  1  0.75742987  0.46439606  0.86229802  1
  Zn  Zn148  1  0.50633646  0.73462823  0.12979428  1
  Zn  Zn149  1  0.52598411  0.71837517  0.34780941  1
  Zn  Zn150  1  0.52197595  0.73454776  0.63540259  1
  Zn  Zn151  1  0.49404531  0.74318032  0.90389725  1
  Zn  Zn152  1  0.24602937  0.95959893  0.10491604  1
  Zn  Zn153  1  0.24540932  0.02854136  0.39423170  1
  Zn  Zn154  1  0.25629736  0.99680933  0.62592728  1
  Zn  Zn155  1  0.25618434  0.00074963  0.86068095  1
  Zn  Zn156  1  0.74949219  0.00114823  0.11664861  1
  Zn  Zn157  1  0.77838599  0.03339347  0.35871285  1
  Zn  Zn158  1  0.75238544  0.96798638  0.62806701  1
  Zn  Zn159  1  0.72987287  0.02244807  0.88379222  1
