# generated using pymatgen
data_KZnF3
_symmetry_space_group_name_H-M   'P 1'
_cell_length_a   11.68582344
_cell_length_b   11.68582344
_cell_length_c   16.52625100
_cell_angle_alpha   90.00000000
_cell_angle_beta   90.00000000
_cell_angle_gamma   90.00000000
_symmetry_Int_Tables_number   1
_chemical_formula_structural   KZnF3
_chemical_formula_sum   'K32 Zn32 F96'
_cell_volume   2256.79954365
_cell_formula_units_Z   32
loop_
 _symmetry_equiv_pos_site_id
 _symmetry_equiv_pos_as_xyz
  1  'x, y, z'
loop_
 _atom_site_type_symbol
 _atom_site_label
 _atom_site_symmetry_multiplicity
 _atom_site_fract_x
 _atom_site_fract_y
 _atom_site_fract_z
 _atom_site_occupancy
  F  F0  1  0.00233693  0.24948470  0.00009601  1
  F  F1  1  0.99797968  0.25101787  0.25008531  1
  F  F2  1  0.00233158  0.24973800  0.50007450  1
  F  F3  1  -0.00182177  0.25124876  0.75012915  1
  F  F4  1  0.50139825  0.24993999  0.00006038  1
  F  F5  1  0.49903800  0.25067696  0.25007653  1
  F  F6  1  0.50135141  0.25016585  0.50008360  1
  F  F7  1  0.49919918  0.25065971  0.75010940  1
  F  F8  1  0.24894755  0.50004221  0.00005309  1
  F  F9  1  0.25158996  0.50041325  0.25009024  1
  F  F10  1  0.24888714  0.50025382  0.50009924  1
  F  F11  1  0.25166215  0.50066671  0.75008218  1
  F  F12  1  0.00145300  0.74988366  0.00007656  1
  F  F13  1  0.99904008  0.75057961  0.25006828  1
  F  F14  1  0.00145602  0.75020787  0.50008431  1
  F  F15  1  -0.00081934  0.75071927  0.75011043  1
  F  F16  1  0.74838205  0.50153909  0.00010051  1
  F  F17  1  0.75197605  0.49905338  0.25013018  1
  F  F18  1  0.74837117  0.50171280  0.50012308  1
  F  F19  1  0.75213545  0.49922612  0.75009978  1
  F  F20  1  0.50237619  0.74948041  0.00010971  1
  F  F21  1  0.49796764  0.75101322  0.25008630  1
  F  F22  1  0.50233872  0.74973469  0.50013618  1
  F  F23  1  0.49814268  0.75120562  0.75012909  1
  F  F24  1  0.24831994  0.00112703  0.00012335  1
  F  F25  1  0.25208915  -0.00060645  0.25011170  1
  F  F26  1  0.24823527  0.00125699  0.50010208  1
  F  F27  1  0.25225753  -0.00032667  0.75009644  1
  F  F28  1  0.74882841  0.00058673  0.00009439  1
  F  F29  1  0.75175361  -0.00001007  0.25007478  1
  F  F30  1  0.74872923  0.00067708  0.50010030  1
  F  F31  1  0.75189918  0.00018198  0.75008206  1
  F  F32  1  0.12467896  0.12469964  0.12655007  1
  F  F33  1  0.12592698  0.12612106  0.37360699  1
  F  F34  1  0.12510142  0.12532296  0.62656734  1
  F  F35  1  0.12551069  0.12554163  0.87359553  1
  F  F36  1  0.62472703  0.12480267  0.12591960  1
  F  F37  1  0.62587933  0.12608284  0.37422250  1
  F  F38  1  0.62511097  0.12527615  0.62588252  1
  F  F39  1  0.62546981  0.12541996  0.87421194  1
  F  F40  1  0.37547060  0.37548659  0.12441043  1
  F  F41  1  0.37430506  0.37447624  0.37570649  1
  F  F42  1  0.37540547  0.37559391  0.62451830  1
  F  F43  1  0.37519342  0.37517351  0.87561213  1
  F  F44  1  0.12473027  0.62462769  0.12569724  1
  F  F45  1  0.12601227  0.62620306  0.37442303  1
  F  F46  1  0.12502815  0.62518418  0.62568488  1
  F  F47  1  0.12539627  0.62545299  0.87444498  1
  F  F48  1  0.87551216  0.37555655  0.12350285  1
  F  F49  1  0.87431310  0.37446745  0.37666651  1
  F  F50  1  0.87542362  0.37563742  0.62354952  1
  F  F51  1  0.87522209  0.37530807  0.87670420  1
  F  F52  1  0.62474496  0.62477680  0.12671540  1
  F  F53  1  0.62601184  0.62620241  0.37353742  1
  F  F54  1  0.62500785  0.62521955  0.62674772  1
  F  F55  1  0.62538948  0.62539247  0.87345287  1
  F  F56  1  0.37552764  0.87552624  0.12355621  1
  F  F57  1  0.37424866  0.87441461  0.37663083  1
  F  F58  1  0.37546633  0.87562870  0.62362859  1
  F  F59  1  0.37525208  0.87530835  0.87661362  1
  F  F60  1  0.87554570  0.87548657  0.12419963  1
  F  F61  1  0.87430605  0.87447559  0.37591831  1
  F  F62  1  0.87548803  0.87565162  0.62422715  1
  F  F63  1  0.87527346  0.87527495  0.87596463  1
  F  F64  1  0.87478353  0.12550555  0.12444487  1
  F  F65  1  0.87590112  0.12454379  0.37574517  1
  F  F66  1  0.87512989  0.12558745  0.62445994  1
  F  F67  1  0.87548705  0.12525344  0.87570056  1
  F  F68  1  0.37476738  0.12551936  0.12457462  1
  F  F69  1  0.37587705  0.12453729  0.37561764  1
  F  F70  1  0.37510090  0.12559995  0.62457362  1
  F  F71  1  0.37545022  0.12519624  0.87565971  1
  F  F72  1  0.12555344  0.37473257  0.12579661  1
  F  F73  1  0.12428545  0.37619170  0.37427912  1
  F  F74  1  0.12540363  0.37523816  0.62585013  1
  F  F75  1  0.12515508  0.37550110  0.87435424  1
  F  F76  1  0.87480911  0.62546838  0.12471803  1
  F  F77  1  0.87608084  0.62441574  0.37547068  1
  F  F78  1  0.87505625  0.62563340  0.62476489  1
  F  F79  1  0.87543563  0.62522551  0.87540757  1
  F  F80  1  0.62547337  0.37484266  0.12535392  1
  F  F81  1  0.62435940  0.37614620  0.37474589  1
  F  F82  1  0.62539916  0.37523191  0.62542870  1
  F  F83  1  0.62519808  0.37538934  0.87475982  1
  F  F84  1  0.37476624  0.62552760  0.12428642  1
  F  F85  1  0.37608922  0.62442426  0.37586837  1
  F  F86  1  0.37499476  0.62564986  0.62435037  1
  F  F87  1  0.37544393  0.62520328  0.87584970  1
  F  F88  1  0.12555249  0.87468674  0.12563409  1
  F  F89  1  0.12430208  0.87617550  0.37449068  1
  F  F90  1  0.12546518  0.87520226  0.62567573  1
  F  F91  1  0.12526578  0.87542568  0.87460172  1
  F  F92  1  0.62554578  0.87483663  0.12575196  1
  F  F93  1  0.62426098  0.87616398  0.37435852  1
  F  F94  1  0.62546455  0.87527906  0.62579213  1
  F  F95  1  0.62526453  0.87533795  0.87447121  1
  K  K96  1  0.00007002  0.00008155  0.00012393  1
  K  K97  1  -0.00001355  0.00012333  0.25012275  1
  K  K98  1  0.00008348  0.00017677  0.50011106  1
  K  K99  1  0.00025583  0.00027330  0.75017913  1
  K  K100  1  0.50016252  0.00008008  0.00011200  1
  K  K101  1  0.50008854  0.00018001  0.25010276  1
  K  K102  1  0.50009189  0.00021298  0.50009781  1
  K  K103  1  0.50023127  0.00020697  0.75019653  1
  K  K104  1  0.25011535  0.25012592  0.00008307  1
  K  K105  1  0.25007904  0.25007231  0.25008740  1
  K  K106  1  0.25012464  0.25022526  0.50011602  1
  K  K107  1  0.25015041  0.25022321  0.75015776  1
  K  K108  1  0.00011164  0.50015026  0.00009401  1
  K  K109  1  0.00009629  0.50010195  0.25005550  1
  K  K110  1  0.00008494  0.50017511  0.50015334  1
  K  K111  1  0.00017057  0.50022407  0.75017161  1
  K  K112  1  0.75014243  0.25017229  0.00013103  1
  K  K113  1  0.75005491  0.25014157  0.25012507  1
  K  K114  1  0.75011995  0.25027655  0.50018822  1
  K  K115  1  0.75014714  0.25017577  0.75016105  1
  K  K116  1  0.50014064  0.50009260  0.00009718  1
  K  K117  1  0.50007182  0.50012928  0.25011837  1
  K  K118  1  0.50006731  0.50023194  0.50014045  1
  K  K119  1  0.50013574  0.50020884  0.75016674  1
  K  K120  1  0.25014311  0.75012718  0.00012170  1
  K  K121  1  0.25005346  0.75013265  0.25012177  1
  K  K122  1  0.25015449  0.75025407  0.50018974  1
  K  K123  1  0.25016715  0.75022665  0.75021398  1
  K  K124  1  0.75010144  0.75020985  0.00012817  1
  K  K125  1  0.75005924  0.75013682  0.25013141  1
  K  K126  1  0.75015910  0.75024194  0.50021352  1
  K  K127  1  0.75017029  0.75020619  0.75020082  1
  Zn  Zn128  1  0.00009237  0.25011658  0.12510370  1
  Zn  Zn129  1  0.00013829  0.25034681  0.37508486  1
  Zn  Zn130  1  0.00024048  0.25043567  0.62513274  1
  Zn  Zn131  1  0.00032338  0.25038444  0.87510357  1
  Zn  Zn132  1  0.50010311  0.25018093  0.12507727  1
  Zn  Zn133  1  0.50013988  0.25030210  0.37509918  1
  Zn  Zn134  1  0.50023301  0.25042722  0.62510826  1
  Zn  Zn135  1  0.50031215  0.25030131  0.87508512  1
  Zn  Zn136  1  0.25014393  0.50012617  0.12511313  1
  Zn  Zn137  1  0.25014343  0.50033705  0.37507556  1
  Zn  Zn138  1  0.25025103  0.50043189  0.62510393  1
  Zn  Zn139  1  0.25029486  0.50031693  0.87509151  1
  Zn  Zn140  1  0.00020109  0.75006498  0.12510058  1
  Zn  Zn141  1  0.00014477  0.75030553  0.37510572  1
  Zn  Zn142  1  0.00029427  0.75036986  0.62511258  1
  Zn  Zn143  1  0.00034646  0.75033390  0.87513336  1
  Zn  Zn144  1  0.75011379  0.50016447  0.12511994  1
  Zn  Zn145  1  0.75015345  0.50031747  0.37514828  1
  Zn  Zn146  1  0.75021097  0.50043719  0.62511454  1
  Zn  Zn147  1  0.75032434  0.50033040  0.87511552  1
  Zn  Zn148  1  0.50013794  0.75017810  0.12509138  1
  Zn  Zn149  1  0.50013884  0.75033612  0.37511453  1
  Zn  Zn150  1  0.50023367  0.75044538  0.62512639  1
  Zn  Zn151  1  0.50033035  0.75032091  0.87511850  1
  Zn  Zn152  1  0.25010450  0.00015186  0.12511821  1
  Zn  Zn153  1  0.25011937  0.00029642  0.37512112  1
  Zn  Zn154  1  0.25022695  0.00045352  0.62508312  1
  Zn  Zn155  1  0.25035044  0.00036630  0.87510443  1
  Zn  Zn156  1  0.75014795  0.00016204  0.12511781  1
  Zn  Zn157  1  0.75016150  0.00029703  0.37511168  1
  Zn  Zn158  1  0.75030249  0.00041387  0.62510350  1
  Zn  Zn159  1  0.75034591  0.00031910  0.87507491  1
