# generated using pymatgen
data_LiCdF3
_symmetry_space_group_name_H-M   'P 1'
_cell_length_a   12.48833166
_cell_length_b   12.48833166
_cell_length_c   17.66116800
_cell_angle_alpha   90.00000000
_cell_angle_beta   90.00000000
_cell_angle_gamma   90.00000000
_symmetry_Int_Tables_number   1
_chemical_formula_structural   LiCdF3
_chemical_formula_sum   'Li32 Cd32 F96'
_cell_volume   2754.40799019
_cell_formula_units_Z   32
loop_
 _symmetry_equiv_pos_site_id
 _symmetry_equiv_pos_as_xyz
  1  'x, y, z'
loop_
 _atom_site_type_symbol
 _atom_site_label
 _atom_site_symmetry_multiplicity
 _atom_site_fract_x
 _atom_site_fract_y
 _atom_site_fract_z
 _atom_site_occupancy
  Cd  Cd0  1  0.00077378  0.22819865  0.12093955  1
  Cd  Cd1  1  0.01376724  0.25065038  0.37052413  1
  Cd  Cd2  1  0.99209104  0.23945046  0.62311490  1
  Cd  Cd3  1  0.99152183  0.25665472  0.88503297  1
  Cd  Cd4  1  0.51058846  0.25810874  0.10639564  1
  Cd  Cd5  1  0.51031605  0.24584790  0.36647727  1
  Cd  Cd6  1  0.51215027  0.25578767  0.61563875  1
  Cd  Cd7  1  0.49252889  0.25370068  0.85836294  1
  Cd  Cd8  1  0.25468604  0.50045669  0.11656517  1
  Cd  Cd9  1  0.26425473  0.49007121  0.37832677  1
  Cd  Cd10  1  0.24457015  0.49265546  0.61950592  1
  Cd  Cd11  1  0.24197188  0.50526617  0.87163305  1
  Cd  Cd12  1  0.02818302  0.76173871  0.11026562  1
  Cd  Cd13  1  0.00829093  0.76660326  0.34738862  1
  Cd  Cd14  1  0.97416795  0.71210636  0.61210003  1
  Cd  Cd15  1  0.00220697  0.76735137  0.87470069  1
  Cd  Cd16  1  0.73638527  0.50133231  0.10937023  1
  Cd  Cd17  1  0.75422493  0.48552489  0.35282762  1
  Cd  Cd18  1  0.76361477  0.50181752  0.59113417  1
  Cd  Cd19  1  0.73535199  0.53603912  0.87216027  1
  Cd  Cd20  1  0.50072206  0.75401510  0.11839855  1
  Cd  Cd21  1  0.53365345  0.75457450  0.38628395  1
  Cd  Cd22  1  0.47373881  0.75132017  0.62574818  1
  Cd  Cd23  1  0.48274838  0.76806236  0.87005995  1
  Cd  Cd24  1  0.22755003  0.00846827  0.12634531  1
  Cd  Cd25  1  0.26534528  0.99083415  0.37424684  1
  Cd  Cd26  1  0.21258691  0.97005056  0.62947729  1
  Cd  Cd27  1  0.23512778  0.00543142  0.86536902  1
  Cd  Cd28  1  0.75798499  0.00404768  0.10808784  1
  Cd  Cd29  1  0.77529273  0.99196907  0.35872391  1
  Cd  Cd30  1  0.75939558  0.00260265  0.61826969  1
  Cd  Cd31  1  0.74469827  0.01212475  0.86860767  1
  F  F32  1  0.02094896  0.17095503  0.99891013  1
  F  F33  1  0.04347475  0.25311178  0.24245752  1
  F  F34  1  0.02105145  0.22734066  0.49784570  1
  F  F35  1  0.98412084  0.30694271  0.75073974  1
  F  F36  1  0.45291474  0.24220392  0.98677678  1
  F  F37  1  0.46782657  0.24290321  0.23594610  1
  F  F38  1  0.53798786  0.22985006  0.49084126  1
  F  F39  1  0.53124190  0.25008351  0.73711133  1
  F  F40  1  0.28356592  0.50237556  0.99323957  1
  F  F41  1  0.25473192  0.45395764  0.24039306  1
  F  F42  1  0.22841557  0.50514444  0.49711178  1
  F  F43  1  0.19488538  0.49996799  0.74694059  1
  F  F44  1  0.95881881  0.76311795  0.99617751  1
  F  F45  1  0.01543274  0.70377536  0.23147138  1
  F  F46  1  0.81946394  0.67596290  0.54643285  1
  F  F47  1  0.99702128  0.74921850  0.74287343  1
  F  F48  1  0.73474498  0.57574653  0.99551982  1
  F  F49  1  0.75944296  0.54842241  0.23273495  1
  F  F50  1  0.81176569  0.49721349  0.47001586  1
  F  F51  1  0.78717751  0.41037113  0.79549449  1
  F  F52  1  0.48915996  0.72772866  0.99263098  1
  F  F53  1  0.49317641  0.73558710  0.24995714  1
  F  F54  1  0.51742414  0.73168383  0.50651854  1
  F  F55  1  0.47759178  0.80672209  0.74625498  1
  F  F56  1  0.25988402  0.03169991  0.99933251  1
  F  F57  1  0.27872611  0.99923976  0.24586384  1
  F  F58  1  0.20240401  0.97699611  0.49650891  1
  F  F59  1  0.16270626  0.96980723  0.74920673  1
  F  F60  1  0.81401289  0.99663153  0.98640073  1
  F  F61  1  0.79223083  0.02900161  0.23112772  1
  F  F62  1  0.75077481  0.01329230  0.49348278  1
  F  F63  1  0.72347466  0.98443425  0.74124211  1
  F  F64  1  0.06359406  0.06128446  0.15631581  1
  F  F65  1  0.14819824  0.12729876  0.39052094  1
  F  F66  1  0.14858324  0.13209275  0.60231611  1
  F  F67  1  0.12348608  0.14512263  0.83903748  1
  F  F68  1  0.60162520  0.10540436  0.09571871  1
  F  F69  1  0.65394814  0.13019043  0.37747814  1
  F  F70  1  0.59666123  0.08769483  0.59488496  1
  F  F71  1  0.65748893  0.17005761  0.87159901  1
  F  F72  1  0.40351884  0.39554145  0.13556955  1
  F  F73  1  0.39910378  0.38293162  0.34840975  1
  F  F74  1  0.35918630  0.35183718  0.61134070  1
  F  F75  1  0.38690568  0.40006120  0.84129644  1
  F  F76  1  0.10524023  0.59827879  0.09631380  1
  F  F77  1  0.00801090  0.72525526  0.47164926  1
  F  F78  1  0.12543341  0.62652737  0.63768963  1
  F  F79  1  0.13685451  0.65553419  0.85014719  1
  F  F80  1  0.88799822  0.38958945  0.09142159  1
  F  F81  1  0.86944371  0.35239310  0.33805474  1
  F  F82  1  0.85292201  0.35152667  0.62425119  1
  F  F83  1  0.83603654  0.30778651  0.93564449  1
  F  F84  1  0.59913357  0.60784149  0.14281350  1
  F  F85  1  0.61641371  0.60307439  0.34936458  1
  F  F86  1  0.63253706  0.62859127  0.63175051  1
  F  F87  1  0.59149217  0.62130375  0.83458472  1
  F  F88  1  0.39177613  0.89831222  0.09256130  1
  F  F89  1  0.39453197  0.86303387  0.36309372  1
  F  F90  1  0.37460824  0.90076380  0.61212258  1
  F  F91  1  0.32937446  0.86267606  0.90547640  1
  F  F92  1  0.90893669  0.88969551  0.13996998  1
  F  F93  1  0.93580377  0.91866596  0.31861239  1
  F  F94  1  0.83768347  0.83540420  0.64289386  1
  F  F95  1  0.86094691  0.87021385  0.83906185  1
  F  F96  1  0.83767994  0.16818022  0.09840176  1
  F  F97  1  0.87369524  0.13968519  0.36546366  1
  F  F98  1  0.90768783  0.08859405  0.64606641  1
  F  F99  1  0.91094626  0.09457023  0.85850872  1
  F  F100  1  0.38148888  0.11131263  0.13026355  1
  F  F101  1  0.39476244  0.11169761  0.35053047  1
  F  F102  1  0.36942395  0.12563494  0.62533135  1
  F  F103  1  0.37380940  0.11627191  0.87290300  1
  F  F104  1  0.10483390  0.38462213  0.13025676  1
  F  F105  1  0.11720627  0.39852010  0.35064688  1
  F  F106  1  0.14786504  0.33547460  0.65047249  1
  F  F107  1  0.11297708  0.38250213  0.86614245  1
  F  F108  1  0.88922819  0.61275335  0.11295970  1
  F  F109  1  0.88228419  0.63618023  0.34829802  1
  F  F110  1  0.89206674  0.55784010  0.67099724  1
  F  F111  1  0.88476230  0.62563327  0.89085287  1
  F  F112  1  0.66400094  0.34566002  0.08219081  1
  F  F113  1  0.65278322  0.34196478  0.33274017  1
  F  F114  1  0.60853858  0.41090691  0.60198181  1
  F  F115  1  0.60545827  0.40205117  0.88326794  1
  F  F116  1  0.35521186  0.64815856  0.10140294  1
  F  F117  1  0.33903323  0.64034478  0.35111473  1
  F  F118  1  0.39853305  0.59095807  0.63929161  1
  F  F119  1  0.38797634  0.61247365  0.88543142  1
  F  F120  1  0.17508061  0.85158030  0.07797547  1
  F  F121  1  0.16136042  0.83696583  0.38102691  1
  F  F122  1  0.09428056  0.84655982  0.59059306  1
  F  F123  1  0.06623800  0.93931877  0.89459265  1
  F  F124  1  0.61380803  0.89287177  0.11916277  1
  F  F125  1  0.67893088  0.84846937  0.36629202  1
  F  F126  1  0.61996914  0.86387285  0.63398380  1
  F  F127  1  0.60494834  0.89767254  0.85571458  1
  Li  Li128  1  0.95857253  0.03651497  0.95913982  1
  Li  Li129  1  0.93932717  0.98508577  0.21932123  1
  Li  Li130  1  0.12365407  0.11537492  0.49436850  1
  Li  Li131  1  0.03163400  0.03503930  0.80712836  1
  Li  Li132  1  0.50123619  0.99911387  0.10735701  1
  Li  Li133  1  0.38437735  0.11404695  0.24277589  1
  Li  Li134  1  0.46576773  0.01785923  0.61087815  1
  Li  Li135  1  0.60515181  0.89196221  0.74645396  1
  Li  Li136  1  0.35750184  0.13640627  0.97692026  1
  Li  Li137  1  0.38968792  0.37714707  0.24089296  1
  Li  Li138  1  0.26239531  0.23428460  0.62459847  1
  Li  Li139  1  0.12136156  0.36599812  0.75648061  1
  Li  Li140  1  0.99856239  0.49236171  0.10009393  1
  Li  Li141  1  0.12485283  0.37596097  0.24342465  1
  Li  Li142  1  0.88242576  0.63168425  0.45648079  1
  Li  Li143  1  0.88511031  0.41467263  0.72020352  1
  Li  Li144  1  0.79394529  0.28482818  0.03880336  1
  Li  Li145  1  0.76590804  0.23831054  0.34063271  1
  Li  Li146  1  0.63805815  0.11387577  0.48553490  1
  Li  Li147  1  0.72807747  0.30269734  0.86153846  1
  Li  Li148  1  0.38394372  0.61788780  0.99647371  1
  Li  Li149  1  0.60423795  0.62532141  0.24617848  1
  Li  Li150  1  0.52655270  0.52262152  0.62918795  1
  Li  Li151  1  0.49363042  0.50475435  0.85574856  1
  Li  Li152  1  0.29860753  0.87282079  0.00978973  1
  Li  Li153  1  0.35531556  0.75712736  0.29462514  1
  Li  Li154  1  0.12849634  0.83595561  0.48825851  1
  Li  Li155  1  0.11304559  0.63648966  0.74463372  1
  Li  Li156  1  0.86003901  0.65482517  0.99723322  1
  Li  Li157  1  0.88319242  0.63137264  0.22916498  1
  Li  Li158  1  0.71600576  0.75148261  0.60282198  1
  Li  Li159  1  0.87386862  0.83877238  0.74165023  1
