# generated using pymatgen
data_LiGaI3
_symmetry_space_group_name_H-M   'P 1'
_cell_length_a   16.40296955
_cell_length_b   16.40296955
_cell_length_c   23.19730100
_cell_angle_alpha   90.00000000
_cell_angle_beta   90.00000000
_cell_angle_gamma   90.00000000
_symmetry_Int_Tables_number   1
_chemical_formula_structural   LiGaI3
_chemical_formula_sum   'Li32 Ga32 I96'
_cell_volume   6241.40572697
_cell_formula_units_Z   32
loop_
 _symmetry_equiv_pos_site_id
 _symmetry_equiv_pos_as_xyz
  1  'x, y, z'
loop_
 _atom_site_type_symbol
 _atom_site_label
 _atom_site_symmetry_multiplicity
 _atom_site_fract_x
 _atom_site_fract_y
 _atom_site_fract_z
 _atom_site_occupancy
  Li  Li0  1  0.93874853  0.13876254  0.01737836  1
  Li  Li1  1  0.02050056  0.94109668  0.17090099  1
  Li  Li2  1  0.04751584  0.89675953  0.58614283  1
  Li  Li3  1  0.93106115  0.01695421  0.69325451  1
  Li  Li4  1  0.37897231  0.09710484  0.09055014  1
  Li  Li5  1  0.58944656  0.13232819  0.23276149  1
  Li  Li6  1  0.60064669  0.83669808  0.53398499  1
  Li  Li7  1  0.48694632  0.04716056  0.63882962  1
  Li  Li8  1  0.24824724  0.41352613  0.82559917  1
  Li  Li9  1  0.34648651  0.28722660  0.21130576  1
  Li  Li10  1  0.28648542  0.18806069  0.35050706  1
  Li  Li11  1  0.11528896  0.25904003  0.77505263  1
  Li  Li12  1  0.10595302  0.75578193  0.02911004  1
  Li  Li13  1  0.98966157  0.52748786  0.29360886  1
  Li  Li14  1  0.08498374  0.37652524  0.46378181  1
  Li  Li15  1  0.89402305  0.23401718  0.74601681  1
  Li  Li16  1  0.71085798  0.27394019  0.04930750  1
  Li  Li17  1  0.79806925  0.26196050  0.24984818  1
  Li  Li18  1  0.83167040  0.18135914  0.47287619  1
  Li  Li19  1  0.73680714  0.18038825  0.65731671  1
  Li  Li20  1  0.31885453  0.40935499  0.00894973  1
  Li  Li21  1  0.40115052  0.55589772  0.26970749  1
  Li  Li22  1  0.61837172  0.42672133  0.51131448  1
  Li  Li23  1  0.62593232  0.62779281  0.79488572  1
  Li  Li24  1  0.29123105  0.80795325  0.17599870  1
  Li  Li25  1  0.37798669  0.96540623  0.28211728  1
  Li  Li26  1  0.11561738  0.63688959  0.55604962  1
  Li  Li27  1  0.23923015  0.83632649  0.65922663  1
  Li  Li28  1  0.61754209  0.79060529  0.99692467  1
  Li  Li29  1  0.76111854  0.78170959  0.19752708  1
  Li  Li30  1  0.87614177  0.68941739  0.64632208  1
  Li  Li31  1  0.91552578  0.60911456  0.77547957  1
  Ga  Ga32  1  0.01027644  0.27281049  0.16125901  1
  Ga  Ga33  1  0.05287998  0.17087974  0.38320960  1
  Ga  Ga34  1  0.04757223  0.29218093  0.62125374  1
  Ga  Ga35  1  0.04644564  0.23280111  0.90766202  1
  Ga  Ga36  1  0.48828481  0.28980530  0.14307505  1
  Ga  Ga37  1  0.51467807  0.28754697  0.35077607  1
  Ga  Ga38  1  0.50809572  0.29989403  0.61242894  1
  Ga  Ga39  1  0.45370654  0.24311784  0.89303627  1
  Ga  Ga40  1  0.19534593  0.52163711  0.16927629  1
  Ga  Ga41  1  0.20599834  0.52770794  0.41570444  1
  Ga  Ga42  1  0.28576085  0.50305440  0.64976049  1
  Ga  Ga43  1  0.28241827  0.57634251  0.92275970  1
  Ga  Ga44  1  0.96517547  0.70563406  0.14997458  1
  Ga  Ga45  1  0.00178145  0.70288858  0.41190825  1
  Ga  Ga46  1  0.01978155  0.74715391  0.70000684  1
  Ga  Ga47  1  0.99114586  0.79145691  0.90105278  1
  Ga  Ga48  1  0.69812366  0.46016299  0.16828929  1
  Ga  Ga49  1  0.73840038  0.42929762  0.39402442  1
  Ga  Ga50  1  0.79049401  0.47814739  0.66503823  1
  Ga  Ga51  1  0.76348788  0.44399544  0.87646848  1
  Ga  Ga52  1  0.53972572  0.69154661  0.13023581  1
  Ga  Ga53  1  0.50462367  0.75084642  0.38664887  1
  Ga  Ga54  1  0.47856380  0.67336237  0.63110039  1
  Ga  Ga55  1  0.51241349  0.88168603  0.87802311  1
  Ga  Ga56  1  0.19366709  0.02632790  0.12345122  1
  Ga  Ga57  1  0.15454916  0.95165934  0.34623033  1
  Ga  Ga58  1  0.27739394  0.04511054  0.58298768  1
  Ga  Ga59  1  0.24505310  0.01152312  0.88008453  1
  Ga  Ga60  1  0.72678487  0.97495978  0.09040500  1
  Ga  Ga61  1  0.75386762  0.01566746  0.31700649  1
  Ga  Ga62  1  0.77787080  0.96095915  0.58174025  1
  Ga  Ga63  1  0.76707906  0.01048816  0.89888284  1
  I  I64  1  0.04155787  0.28343485  0.01254729  1
  I  I65  1  0.96010642  0.26321639  0.28598915  1
  I  I66  1  0.97499413  0.25968561  0.48762169  1
  I  I67  1  0.03854088  0.15206263  0.71078843  1
  I  I68  1  0.38193184  0.25594727  0.99429937  1
  I  I69  1  0.61778684  0.30224988  0.24209662  1
  I  I70  1  0.54373106  0.26988559  0.50481853  1
  I  I71  1  0.56372895  0.18957244  0.68537884  1
  I  I72  1  0.18231212  0.45328054  0.94206563  1
  I  I73  1  0.25463982  0.63281220  0.23775386  1
  I  I74  1  0.16900691  0.47043316  0.54591071  1
  I  I75  1  0.28284734  0.58280016  0.81204205  1
  I  I76  1  0.95026025  0.71140559  0.99450316  1
  I  I77  1  0.00660613  0.68981807  0.27785721  1
  I  I78  1  0.97911710  0.74427977  0.55900443  1
  I  I79  1  0.06330742  0.68831790  0.83086973  1
  I  I80  1  0.80624770  0.35425931  0.96245222  1
  I  I81  1  0.79969986  0.50069077  0.30543929  1
  I  I82  1  0.78410903  0.47384063  0.49648469  1
  I  I83  1  0.76406882  0.65362473  0.73427973  1
  I  I84  1  0.50499876  0.92065900  0.98611497  1
  I  I85  1  0.55179442  0.59757141  0.22085227  1
  I  I86  1  0.45750236  0.84316900  0.47098833  1
  I  I87  1  0.48659123  0.59591139  0.72879024  1
  I  I88  1  0.27479057  0.02241296  0.00436675  1
  I  I89  1  0.09663749  0.03643733  0.26156578  1
  I  I90  1  0.21810140  0.90319048  0.54853238  1
  I  I91  1  0.32213498  0.03434375  0.69047469  1
  I  I92  1  0.75863746  0.87430305  0.98609935  1
  I  I93  1  0.77020894  0.09302055  0.21884009  1
  I  I94  1  0.75684968  0.86812472  0.49269349  1
  I  I95  1  0.79767705  0.09738095  0.74835502  1
  I  I96  1  0.99855626  0.09085526  0.11963025  1
  I  I97  1  0.25061022  0.04625923  0.40656121  1
  I  I98  1  0.17480341  0.15652925  0.55735545  1
  I  I99  1  0.19692733  0.21302779  0.87290342  1
  I  I100  1  0.54836936  0.12549466  0.11493194  1
  I  I101  1  0.60896926  0.05914776  0.34869918  1
  I  I102  1  0.72043468  0.11078599  0.54783713  1
  I  I103  1  0.60732603  0.23283902  0.90453562  1
  I  I104  1  0.32417936  0.44650978  0.12826782  1
  I  I105  1  0.38217450  0.39433786  0.29866142  1
  I  I106  1  0.35634187  0.31587087  0.63226073  1
  I  I107  1  0.41193498  0.36180934  0.82441435  1
  I  I108  1  0.10321017  0.56989811  0.08705825  1
  I  I109  1  0.17802242  0.69724076  0.45418936  1
  I  I110  1  0.18076258  0.68004577  0.66400902  1
  I  I111  1  0.24376825  0.71741783  0.96185151  1
  I  I112  1  0.82652394  0.32293127  0.13853394  1
  I  I113  1  0.74533050  0.27036942  0.38703700  1
  I  I114  1  0.85336642  0.29974763  0.63640506  1
  I  I115  1  0.76027303  0.36765373  0.77780843  1
  I  I116  1  0.61974018  0.63152810  0.04425128  1
  I  I117  1  0.64918202  0.69776379  0.40239149  1
  I  I118  1  0.62288786  0.68594572  0.58648281  1
  I  I119  1  0.57282110  0.73318488  0.88391688  1
  I  I120  1  0.36808949  0.95590129  0.16526142  1
  I  I121  1  0.25656199  0.84230344  0.31088259  1
  I  I122  1  0.41410936  0.81393480  0.65536010  1
  I  I123  1  0.36800184  0.86809572  0.83453905  1
  I  I124  1  0.87553736  0.87444986  0.14377720  1
  I  I125  1  0.77285465  0.86062366  0.30940615  1
  I  I126  1  0.82878801  0.87322581  0.67262779  1
  I  I127  1  0.88078772  0.85817420  0.83772605  1
  I  I128  1  0.77431856  0.12353776  0.01886139  1
  I  I129  1  0.86605474  0.06190027  0.38884040  1
  I  I130  1  0.93766393  0.02332568  0.56847335  1
  I  I131  1  0.97002980  0.09568868  0.90014389  1
  I  I132  1  0.25677508  0.20338732  0.13471993  1
  I  I133  1  0.40755635  0.14515142  0.27914756  1
  I  I134  1  0.41596844  0.06984268  0.53111576  1
  I  I135  1  0.40480235  0.10756237  0.84578075  1
  I  I136  1  0.11217704  0.42599783  0.23599022  1
  I  I137  1  0.18555805  0.30163930  0.38661419  1
  I  I138  1  0.16782956  0.39008741  0.72214185  1
  I  I139  1  0.98548676  0.33691348  0.83538870  1
  I  I140  1  0.80266912  0.62530727  0.16968280  1
  I  I141  1  0.01727642  0.50615517  0.40812128  1
  I  I142  1  0.96248225  0.53786771  0.67289380  1
  I  I143  1  0.87655287  0.55345586  0.88214811  1
  I  I144  1  0.58818670  0.38318882  0.06755627  1
  I  I145  1  0.58188605  0.46390623  0.39401547  1
  I  I146  1  0.59500590  0.43036787  0.62965079  1
  I  I147  1  0.62018473  0.50758020  0.88367388  1
  I  I148  1  0.39162465  0.71457650  0.09758071  1
  I  I149  1  0.40134436  0.62901856  0.37908706  1
  I  I150  1  0.39437049  0.59456289  0.55534068  1
  I  I151  1  0.41852812  0.53125811  0.96781182  1
  I  I152  1  0.13597352  0.82767377  0.13279731  1
  I  I153  1  0.04013608  0.89892904  0.41085389  1
  I  I154  1  0.09042130  0.90999832  0.70424812  1
  I  I155  1  0.09264005  0.89518804  0.94548244  1
  I  I156  1  0.61121525  0.83338361  0.14587424  1
  I  I157  1  0.49723856  0.83584968  0.29213507  1
  I  I158  1  0.61448007  0.93769830  0.62932115  1
  I  I159  1  0.61245567  0.96721740  0.81784755  1
