# generated using pymatgen
data_LiGaBr3
_symmetry_space_group_name_H-M   'P 1'
_cell_length_a   15.17240293
_cell_length_b   15.17240293
_cell_length_c   21.45701900
_cell_angle_alpha   90.00000000
_cell_angle_beta   90.00000000
_cell_angle_gamma   90.00000000
_symmetry_Int_Tables_number   1
_chemical_formula_structural   LiGaBr3
_chemical_formula_sum   'Li32 Ga32 Br96'
_cell_volume   4939.44462659
_cell_formula_units_Z   32
loop_
 _symmetry_equiv_pos_site_id
 _symmetry_equiv_pos_as_xyz
  1  'x, y, z'
loop_
 _atom_site_type_symbol
 _atom_site_label
 _atom_site_symmetry_multiplicity
 _atom_site_fract_x
 _atom_site_fract_y
 _atom_site_fract_z
 _atom_site_occupancy
  Li  Li0  1  0.86979909  0.88090134  0.97792806  1
  Li  Li1  1  0.08847290  0.93997593  0.33527613  1
  Li  Li2  1  0.16190557  0.04838409  0.48655653  1
  Li  Li3  1  0.05963211  0.05363367  0.71685798  1
  Li  Li4  1  0.41904295  0.97244971  0.95145277  1
  Li  Li5  1  0.42802905  0.90720902  0.12378998  1
  Li  Li6  1  0.65197641  0.03162087  0.51873393  1
  Li  Li7  1  0.46253847  0.11698892  0.81271439  1
  Li  Li8  1  0.33463586  0.16873172  0.07100911  1
  Li  Li9  1  0.46973641  0.26802568  0.25691472  1
  Li  Li10  1  0.37099344  0.28275554  0.68035350  1
  Li  Li11  1  0.25654023  0.18754295  0.81760689  1
  Li  Li12  1  0.94948652  0.56462026  0.04909207  1
  Li  Li13  1  0.03501088  0.42305826  0.30482131  1
  Li  Li14  1  0.12016616  0.34207341  0.43607271  1
  Li  Li15  1  0.11421901  0.44076436  0.78444280  1
  Li  Li16  1  0.86955484  0.31138143  0.97356319  1
  Li  Li17  1  0.86014996  0.45721612  0.18868230  1
  Li  Li18  1  0.92683068  0.23260271  0.46168330  1
  Li  Li19  1  0.58640998  0.34042377  0.78469544  1
  Li  Li20  1  0.41582159  0.37217260  0.08733713  1
  Li  Li21  1  0.58625963  0.52495368  0.27466958  1
  Li  Li22  1  0.48285587  0.50333152  0.63442723  1
  Li  Li23  1  0.32831249  0.47500526  0.79129618  1
  Li  Li24  1  0.07126907  0.83020669  0.96219139  1
  Li  Li25  1  0.37570265  0.67781771  0.13798309  1
  Li  Li26  1  0.23394182  0.78839733  0.46157140  1
  Li  Li27  1  0.16653990  0.72836393  0.74517306  1
  Li  Li28  1  0.57276161  0.79529288  0.98794234  1
  Li  Li29  1  0.70479493  0.90223727  0.27301758  1
  Li  Li30  1  0.73582844  0.82183900  0.56508935  1
  Li  Li31  1  0.97614728  0.55518348  0.64096532  1
  Ga  Ga32  1  0.03993760  0.31268968  0.09929377  1
  Ga  Ga33  1  0.02075918  0.20111493  0.31944502  1
  Ga  Ga34  1  0.95255282  0.27070953  0.65499484  1
  Ga  Ga35  1  0.02062817  0.29650162  0.84922072  1
  Ga  Ga36  1  0.56165301  0.19444380  0.03712594  1
  Ga  Ga37  1  0.52338761  0.19026638  0.38551807  1
  Ga  Ga38  1  0.56368649  0.16625506  0.62013575  1
  Ga  Ga39  1  0.42941093  0.36612484  0.91729860  1
  Ga  Ga40  1  0.21050694  0.53972764  0.10738104  1
  Ga  Ga41  1  0.30549502  0.47467777  0.31778710  1
  Ga  Ga42  1  0.23343899  0.45974023  0.57216403  1
  Ga  Ga43  1  0.16833114  0.58453302  0.89563309  1
  Ga  Ga44  1  0.91097518  0.77069875  0.14277626  1
  Ga  Ga45  1  0.01804504  0.68667425  0.37051918  1
  Ga  Ga46  1  0.92076796  0.82141309  0.62037190  1
  Ga  Ga47  1  0.94053217  0.80388900  0.81465856  1
  Ga  Ga48  1  0.69160385  0.50120016  0.07421656  1
  Ga  Ga49  1  0.77660585  0.46651218  0.39504266  1
  Ga  Ga50  1  0.69079918  0.52063355  0.62814275  1
  Ga  Ga51  1  0.75984304  0.50287584  0.86040786  1
  Ga  Ga52  1  0.63989613  0.75129329  0.16618625  1
  Ga  Ga53  1  0.43097299  0.71001123  0.35249019  1
  Ga  Ga54  1  0.55110839  0.80446239  0.64482903  1
  Ga  Ga55  1  0.42171760  0.71625398  0.85063186  1
  Ga  Ga56  1  0.17928597  0.96890016  0.11681882  1
  Ga  Ga57  1  0.31638114  0.03075899  0.31194329  1
  Ga  Ga58  1  0.21854977  0.93348879  0.60727274  1
  Ga  Ga59  1  0.18073103  0.97740556  0.87395829  1
  Ga  Ga60  1  0.80075436  0.11400896  0.08109412  1
  Ga  Ga61  1  0.82923357  0.01268237  0.36636115  1
  Ga  Ga62  1  0.75628841  0.00564757  0.68051802  1
  Ga  Ga63  1  0.66869617  0.95482526  0.86580612  1
  Br  Br64  1  0.01997522  0.25138041  0.96843192  1
  Br  Br65  1  0.95802665  0.34017361  0.22466946  1
  Br  Br66  1  0.08159508  0.18411199  0.45858312  1
  Br  Br67  1  0.98593031  0.41065181  0.70555898  1
  Br  Br68  1  0.31494877  0.30255554  0.00814401  1
  Br  Br69  1  0.58204022  0.14446176  0.28800363  1
  Br  Br70  1  0.44966291  0.25449778  0.57839221  1
  Br  Br71  1  0.59969499  0.18740298  0.72642255  1
  Br  Br72  1  0.36041864  0.53533696  0.06992091  1
  Br  Br73  1  0.20140228  0.43977835  0.19048939  1
  Br  Br74  1  0.27497953  0.38613379  0.47890394  1
  Br  Br75  1  0.20432867  0.56828852  0.75461568  1
  Br  Br76  1  0.95457943  0.73621496  0.01323972  1
  Br  Br77  1  0.03785456  0.79028654  0.28852040  1
  Br  Br78  1  0.07037182  0.73944283  0.46773255  1
  Br  Br79  1  0.02055698  0.69995474  0.68949719  1
  Br  Br80  1  0.77692509  0.57357612  0.95981635  1
  Br  Br81  1  0.73697758  0.46411641  0.26787330  1
  Br  Br82  1  0.59645987  0.47872680  0.54479504  1
  Br  Br83  1  0.72399648  0.39711336  0.68922639  1
  Br  Br84  1  0.70219308  0.73948650  0.06514806  1
  Br  Br85  1  0.34152349  0.67251610  0.26388756  1
  Br  Br86  1  0.59461550  0.78145435  0.52522253  1
  Br  Br87  1  0.38750330  0.73292148  0.74482171  1
  Br  Br88  1  0.20854299  0.89943133  0.01936592  1
  Br  Br89  1  0.28805467  0.91105940  0.18887533  1
  Br  Br90  1  0.28673351  0.06146544  0.56831162  1
  Br  Br91  1  0.19911001  0.92334562  0.71711049  1
  Br  Br92  1  0.76632774  0.17899711  0.98354953  1
  Br  Br93  1  0.83763223  0.00349199  0.25596629  1
  Br  Br94  1  0.79903395  0.97002172  0.54935804  1
  Br  Br95  1  0.55101738  0.94775278  0.79375980  1
  Br  Br96  1  0.18348327  0.12404542  0.10622339  1
  Br  Br97  1  0.14514503  0.07249810  0.27939593  1
  Br  Br98  1  0.07431144  0.17714657  0.63571547  1
  Br  Br99  1  0.10463438  0.12214186  0.81617287  1
  Br  Br100  1  0.68482559  0.16113500  0.14621760  1
  Br  Br101  1  0.51010296  0.06701007  0.45147959  1
  Br  Br102  1  0.53682294  0.01065186  0.61298420  1
  Br  Br103  1  0.54359727  0.23124845  0.87903590  1
  Br  Br104  1  0.44021055  0.23550504  0.14839944  1
  Br  Br105  1  0.45799680  0.43155136  0.25107916  1
  Br  Br106  1  0.45122372  0.40856372  0.72879755  1
  Br  Br107  1  0.23537460  0.35020339  0.83686294  1
  Br  Br108  1  0.19643403  0.68962104  0.13318613  1
  Br  Br109  1  0.10853415  0.56496912  0.34202679  1
  Br  Br110  1  0.09171737  0.51855583  0.54968712  1
  Br  Br111  1  0.11999088  0.76256327  0.85635501  1
  Br  Br112  1  0.86598095  0.40720528  0.06883913  1
  Br  Br113  1  0.94556032  0.38174590  0.40263100  1
  Br  Br114  1  0.89279188  0.32132251  0.55971048  1
  Br  Br115  1  0.81236014  0.35367127  0.86393743  1
  Br  Br116  1  0.74802345  0.74142653  0.24566498  1
  Br  Br117  1  0.56344172  0.62775091  0.36567401  1
  Br  Br118  1  0.59344494  0.61425396  0.68605198  1
  Br  Br119  1  0.57151655  0.72404954  0.87958121  1
  Br  Br120  1  0.44622266  0.77616002  0.06016106  1
  Br  Br121  1  0.46218539  0.86019171  0.35122803  1
  Br  Br122  1  0.29238514  0.80489329  0.57443852  1
  Br  Br123  1  0.34666654  0.83093519  0.90394207  1
  Br  Br124  1  0.79470400  0.95659792  0.07220267  1
  Br  Br125  1  0.96038254  0.96206853  0.41305336  1
  Br  Br126  1  0.93728182  0.94462972  0.71725279  1
  Br  Br127  1  0.76180510  0.82989548  0.88911416  1
  Br  Br128  1  0.93956527  0.14642749  0.12201141  1
  Br  Br129  1  0.79926626  0.15928614  0.39856321  1
  Br  Br130  1  0.85899205  0.19539432  0.72238384  1
  Br  Br131  1  0.76439620  0.06645311  0.83713618  1
  Br  Br132  1  0.42456382  0.03500362  0.05859378  1
  Br  Br133  1  0.37459214  0.22981409  0.35662032  1
  Br  Br134  1  0.35001888  0.14188237  0.73013922  1
  Br  Br135  1  0.33583584  0.08914145  0.89773174  1
  Br  Br136  1  0.11023610  0.49638305  0.02820565  1
  Br  Br137  1  0.16487979  0.32329244  0.32485174  1
  Br  Br138  1  0.22358800  0.35629299  0.65373130  1
  Br  Br139  1  0.01744887  0.49393574  0.87261625  1
  Br  Br140  1  0.94611520  0.59563696  0.16448313  1
  Br  Br141  1  0.86796935  0.65015649  0.38387937  1
  Br  Br142  1  0.81892353  0.59166040  0.58683269  1
  Br  Br143  1  0.82054445  0.59629207  0.78596015  1
  Br  Br144  1  0.56402572  0.39365165  0.02747773  1
  Br  Br145  1  0.59354337  0.31850842  0.41883722  1
  Br  Br146  1  0.69056099  0.18944670  0.55932085  1
  Br  Br147  1  0.60609421  0.48349414  0.84781267  1
  Br  Br148  1  0.54798475  0.62581115  0.17661901  1
  Br  Br149  1  0.33812255  0.66242600  0.43537484  1
  Br  Br150  1  0.33819701  0.57025050  0.59609131  1
  Br  Br151  1  0.38241145  0.57256923  0.88713348  1
  Br  Br152  1  0.04014462  0.92276559  0.15071444  1
  Br  Br153  1  0.22076098  0.93494034  0.40930294  1
  Br  Br154  1  0.07447520  0.94294353  0.56288116  1
  Br  Br155  1  0.98387144  0.95004488  0.91509423  1
  Br  Br156  1  0.58009160  0.89460890  0.18690711  1
  Br  Br157  1  0.70791365  0.91880069  0.39004942  1
  Br  Br158  1  0.73605823  0.81459586  0.68198390  1
  Br  Br159  1  0.59293192  0.96758976  0.96451983  1
