# generated using pymatgen
data_LiGeCl3
_symmetry_space_group_name_H-M   'P 1'
_cell_length_a   14.71135941
_cell_length_b   14.71135941
_cell_length_c   20.80500300
_cell_angle_alpha   90.00000000
_cell_angle_beta   90.00000000
_cell_angle_gamma   90.00000000
_symmetry_Int_Tables_number   1
_chemical_formula_structural   LiGeCl3
_chemical_formula_sum   'Li32 Ge32 Cl96'
_cell_volume   4502.70396073
_cell_formula_units_Z   32
loop_
 _symmetry_equiv_pos_site_id
 _symmetry_equiv_pos_as_xyz
  1  'x, y, z'
loop_
 _atom_site_type_symbol
 _atom_site_label
 _atom_site_symmetry_multiplicity
 _atom_site_fract_x
 _atom_site_fract_y
 _atom_site_fract_z
 _atom_site_occupancy
  Li  Li0  1  0.98267220  0.97674723  0.10021875  1
  Li  Li1  1  0.96836025  0.91812297  0.32771864  1
  Li  Li2  1  0.90244240  0.02742164  0.50257844  1
  Li  Li3  1  0.04774090  0.03826071  0.75283382  1
  Li  Li4  1  0.40802225  0.15728267  0.01368915  1
  Li  Li5  1  0.38174940  0.10808792  0.24140385  1
  Li  Li6  1  0.51364503  0.95915348  0.63823594  1
  Li  Li7  1  0.53160967  0.00671084  0.83155170  1
  Li  Li8  1  0.13321182  0.22827573  0.04566434  1
  Li  Li9  1  0.13327250  0.12833108  0.22735800  1
  Li  Li10  1  0.23470976  0.19839924  0.43197614  1
  Li  Li11  1  0.18389986  0.35364515  0.72462405  1
  Li  Li12  1  0.05367292  0.47746089  0.05613044  1
  Li  Li13  1  0.09393698  0.42085274  0.21837625  1
  Li  Li14  1  0.94957872  0.45010680  0.41384081  1
  Li  Li15  1  0.07312567  0.57200583  0.86933332  1
  Li  Li16  1  0.66833751  0.30456834  0.01500137  1
  Li  Li17  1  0.69187119  0.13793667  0.19806054  1
  Li  Li18  1  0.67517051  0.22859635  0.58641407  1
  Li  Li19  1  0.85203522  0.31138065  0.74610335  1
  Li  Li20  1  0.58650603  0.59889568  0.96296165  1
  Li  Li21  1  0.40407668  0.46666543  0.29233693  1
  Li  Li22  1  0.52773351  0.39076570  0.51879259  1
  Li  Li23  1  0.43953621  0.54876611  0.64280025  1
  Li  Li24  1  0.15631888  0.74176170  0.03407338  1
  Li  Li25  1  0.48554673  0.64585438  0.20960030  1
  Li  Li26  1  0.29161627  0.77438688  0.53123469  1
  Li  Li27  1  0.23011172  0.85292362  0.81842422  1
  Li  Li28  1  0.74683752  0.74235108  0.04091212  1
  Li  Li29  1  0.76825544  0.64180227  0.28811487  1
  Li  Li30  1  0.63874670  0.80165117  0.47832544  1
  Li  Li31  1  0.82432157  0.60938886  0.73624523  1
  Ge  Ge32  1  0.94398507  0.24016357  0.15160679  1
  Ge  Ge33  1  0.94605206  0.15400234  0.37084357  1
  Ge  Ge34  1  0.03763708  0.25662118  0.61536420  1
  Ge  Ge35  1  0.03013389  0.31554163  0.89483252  1
  Ge  Ge36  1  0.53773352  0.30096375  0.16067378  1
  Ge  Ge37  1  0.45202975  0.22045260  0.39214526  1
  Ge  Ge38  1  0.46280856  0.18641793  0.69603279  1
  Ge  Ge39  1  0.53205161  0.26691096  0.89229777  1
  Ge  Ge40  1  0.28045024  0.48612160  0.09004120  1
  Ge  Ge41  1  0.19248865  0.46297864  0.37340181  1
  Ge  Ge42  1  0.25136664  0.55112718  0.57377186  1
  Ge  Ge43  1  0.31422531  0.46143074  0.81756012  1
  Ge  Ge44  1  0.97617624  0.75864886  0.17158464  1
  Ge  Ge45  1  0.90654612  0.69763226  0.42280821  1
  Ge  Ge46  1  0.98465695  0.62546698  0.56381155  1
  Ge  Ge47  1  0.99821457  0.78791625  0.86060629  1
  Ge  Ge48  1  0.78772043  0.49660785  0.12518002  1
  Ge  Ge49  1  0.69326864  0.37653199  0.40536799  1
  Ge  Ge50  1  0.71282658  0.45478567  0.63668739  1
  Ge  Ge51  1  0.79559112  0.54283912  0.91226226  1
  Ge  Ge52  1  0.47701517  0.76348081  0.07070256  1
  Ge  Ge53  1  0.49264778  0.74883308  0.34611417  1
  Ge  Ge54  1  0.62011315  0.72191952  0.64107502  1
  Ge  Ge55  1  0.47686638  0.73864759  0.83786279  1
  Ge  Ge56  1  0.25740370  0.99202334  0.07815893  1
  Ge  Ge57  1  0.22414153  0.92972468  0.36725908  1
  Ge  Ge58  1  0.24906292  0.99780293  0.58347193  1
  Ge  Ge59  1  0.22130925  0.07724946  0.86355377  1
  Ge  Ge60  1  0.74682458  0.97255532  0.09693554  1
  Ge  Ge61  1  0.60783390  0.03137115  0.34396948  1
  Ge  Ge62  1  0.77749385  0.97386522  0.62978504  1
  Ge  Ge63  1  0.81491745  0.05832031  0.83137433  1
  Cl  Cl64  1  0.99242203  0.24986994  0.99489876  1
  Cl  Cl65  1  0.03711681  0.27465338  0.24468296  1
  Cl  Cl66  1  0.00795290  0.14209500  0.47487096  1
  Cl  Cl67  1  0.01956507  0.31722331  0.72292388  1
  Cl  Cl68  1  0.50060933  0.29477954  0.01261404  1
  Cl  Cl69  1  0.59388819  0.23226249  0.25994124  1
  Cl  Cl70  1  0.37102774  0.22978660  0.48977282  1
  Cl  Cl71  1  0.58205920  0.21303682  0.76752515  1
  Cl  Cl72  1  0.28190649  0.46853022  0.98220241  1
  Cl  Cl73  1  0.24787897  0.41988395  0.26805508  1
  Cl  Cl74  1  0.22141544  0.63911702  0.48230384  1
  Cl  Cl75  1  0.35051488  0.44338460  0.70651382  1
  Cl  Cl76  1  0.01231192  0.81782143  0.06647841  1
  Cl  Cl77  1  0.86071136  0.77540183  0.32609470  1
  Cl  Cl78  1  0.02586005  0.48573693  0.51216630  1
  Cl  Cl79  1  0.09106610  0.79005889  0.77267866  1
  Cl  Cl80  1  0.85191767  0.63454441  0.99862622  1
  Cl  Cl81  1  0.75730678  0.49340077  0.23481433  1
  Cl  Cl82  1  0.66357570  0.47952492  0.48884299  1
  Cl  Cl83  1  0.75318753  0.45330248  0.75170253  1
  Cl  Cl84  1  0.44392670  0.65244678  0.93534984  1
  Cl  Cl85  1  0.50637922  0.80527169  0.17714901  1
  Cl  Cl86  1  0.52132980  0.69515660  0.45074838  1
  Cl  Cl87  1  0.56819763  0.59030122  0.70025962  1
  Cl  Cl88  1  0.25158301  0.16616409  0.99342820  1
  Cl  Cl89  1  0.25470046  0.02631952  0.19951949  1
  Cl  Cl90  1  0.22329042  0.03445038  0.46371918  1
  Cl  Cl91  1  0.20733731  0.99512322  0.75852432  1
  Cl  Cl92  1  0.86883000  0.02943277  0.03346632  1
  Cl  Cl93  1  0.67465636  0.99405279  0.24580867  1
  Cl  Cl94  1  0.64760189  0.90738994  0.56718780  1
  Cl  Cl95  1  0.81477859  0.14960555  0.73740828  1
  Cl  Cl96  1  0.06181873  0.11863379  0.12401944  1
  Cl  Cl97  1  0.06847089  0.06501290  0.32119876  1
  Cl  Cl98  1  0.04680631  0.10092875  0.64546567  1
  Cl  Cl99  1  0.06380116  0.11789659  0.85512085  1
  Cl  Cl100  1  0.65624496  0.10805428  0.08849093  1
  Cl  Cl101  1  0.45687542  0.00095019  0.30967111  1
  Cl  Cl102  1  0.55536804  0.12004074  0.61313231  1
  Cl  Cl103  1  0.67781572  0.21757539  0.91936662  1
  Cl  Cl104  1  0.49528730  0.44751936  0.20121305  1
  Cl  Cl105  1  0.45653296  0.38324250  0.38311064  1
  Cl  Cl106  1  0.40997378  0.49437654  0.53846270  1
  Cl  Cl107  1  0.27177187  0.30563187  0.81949713  1
  Cl  Cl108  1  0.15398520  0.59757533  0.09224170  1
  Cl  Cl109  1  0.05186769  0.50513749  0.32445469  1
  Cl  Cl110  1  0.10191745  0.63151559  0.63687787  1
  Cl  Cl111  1  0.11610117  0.70522070  0.92428469  1
  Cl  Cl112  1  0.95094702  0.47942760  0.14511338  1
  Cl  Cl113  1  0.84382020  0.32986036  0.43383973  1
  Cl  Cl114  1  0.80284259  0.32170905  0.62098486  1
  Cl  Cl115  1  0.01813145  0.47108824  0.94648739  1
  Cl  Cl116  1  0.61455715  0.66157844  0.06720006  1
  Cl  Cl117  1  0.60941154  0.65665204  0.29263156  1
  Cl  Cl118  1  0.75011825  0.74562635  0.70511317  1
  Cl  Cl119  1  0.68921581  0.65488919  0.88192865  1
  Cl  Cl120  1  0.41302530  0.01282608  0.06982353  1
  Cl  Cl121  1  0.31987434  0.82549406  0.41600277  1
  Cl  Cl122  1  0.38896725  0.92157387  0.56484759  1
  Cl  Cl123  1  0.45588486  0.88384259  0.88515493  1
  Cl  Cl124  1  0.96593307  0.91285304  0.20797427  1
  Cl  Cl125  1  0.78288384  0.72862164  0.48871573  1
  Cl  Cl126  1  0.89865522  0.90558749  0.57497974  1
  Cl  Cl127  1  0.91424347  0.94924294  0.77868705  1
  Cl  Cl128  1  0.85519436  0.14059799  0.21303613  1
  Cl  Cl129  1  0.86116604  0.01429041  0.38822041  1
  Cl  Cl130  1  0.78251208  0.10119616  0.55735134  1
  Cl  Cl131  1  0.87881831  0.31861022  0.86271788  1
  Cl  Cl132  1  0.39285567  0.23272978  0.16638873  1
  Cl  Cl133  1  0.31067165  0.19544150  0.32998279  1
  Cl  Cl134  1  0.43892326  0.03394189  0.73472379  1
  Cl  Cl135  1  0.46427038  0.12058945  0.90431736  1
  Cl  Cl136  1  0.14850440  0.36494585  0.10849502  1
  Cl  Cl137  1  0.13066459  0.32056879  0.40683487  1
  Cl  Cl138  1  0.19608219  0.28426109  0.62084153  1
  Cl  Cl139  1  0.16204244  0.50318589  0.78816797  1
  Cl  Cl140  1  0.81954360  0.74054035  0.15335220  1
  Cl  Cl141  1  0.83714746  0.56184404  0.38194294  1
  Cl  Cl142  1  0.88920280  0.55055092  0.63932591  1
  Cl  Cl143  1  0.93358560  0.63987661  0.82402192  1
  Cl  Cl144  1  0.75869771  0.33458360  0.11161015  1
  Cl  Cl145  1  0.62418373  0.25623251  0.47015423  1
  Cl  Cl146  1  0.57448023  0.35699417  0.62920008  1
  Cl  Cl147  1  0.67305225  0.46208921  0.97322068  1
  Cl  Cl148  1  0.39759958  0.63003057  0.10978435  1
  Cl  Cl149  1  0.38466635  0.62681063  0.30219838  1
  Cl  Cl150  1  0.33437477  0.67359815  0.62283037  1
  Cl  Cl151  1  0.32494226  0.72518700  0.80150572  1
  Cl  Cl152  1  0.26966917  0.82874683  0.08786524  1
  Cl  Cl153  1  0.08931012  0.84591316  0.38735502  1
  Cl  Cl154  1  0.16737132  0.86582878  0.57754417  1
  Cl  Cl155  1  0.19427259  0.93693217  0.91760063  1
  Cl  Cl156  1  0.68418481  0.88662349  0.01224378  1
  Cl  Cl157  1  0.63552308  0.87988599  0.38040266  1
  Cl  Cl158  1  0.52613193  0.82101822  0.69946807  1
  Cl  Cl159  1  0.68484297  0.97244425  0.80503972  1
