# generated using pymatgen
data_LiZnF3
_symmetry_space_group_name_H-M   'P 1'
_cell_length_a   11.40181966
_cell_length_b   11.40181966
_cell_length_c   16.12460800
_cell_angle_alpha   90.00000000
_cell_angle_beta   90.00000000
_cell_angle_gamma   90.00000000
_symmetry_Int_Tables_number   1
_chemical_formula_structural   LiZnF3
_chemical_formula_sum   'Li32 Zn32 F96'
_cell_volume   2096.22309109
_cell_formula_units_Z   32
loop_
 _symmetry_equiv_pos_site_id
 _symmetry_equiv_pos_as_xyz
  1  'x, y, z'
loop_
 _atom_site_type_symbol
 _atom_site_label
 _atom_site_symmetry_multiplicity
 _atom_site_fract_x
 _atom_site_fract_y
 _atom_site_fract_z
 _atom_site_occupancy
  F  F0  1  0.04694323  0.25717383  0.99414308  1
  F  F1  1  0.95086669  0.22868154  0.25859721  1
  F  F2  1  0.03746066  0.24615334  0.48536710  1
  F  F3  1  0.93029758  0.25402402  0.75913619  1
  F  F4  1  0.50650355  0.29200942  0.99689985  1
  F  F5  1  0.49445399  0.17799658  0.24422947  1
  F  F6  1  0.45766646  0.27717219  0.50682986  1
  F  F7  1  0.54274774  0.25283406  0.74426470  1
  F  F8  1  0.25677713  0.42812445  0.01251943  1
  F  F9  1  0.25402157  0.56457708  0.25290126  1
  F  F10  1  0.25770208  0.43204091  0.48811136  1
  F  F11  1  0.22831238  0.56799646  0.75624570  1
  F  F12  1  0.95526958  0.71677534  0.02132092  1
  F  F13  1  0.07475509  0.76620926  0.26493945  1
  F  F14  1  0.00087378  0.79164228  0.49083913  1
  F  F15  1  0.04367383  0.73712542  0.73554145  1
  F  F16  1  0.71536434  0.48550608  0.01364561  1
  F  F17  1  0.80834455  0.46980784  0.26111238  1
  F  F18  1  0.73436306  0.53549477  0.48322720  1
  F  F19  1  0.74676608  0.44630491  0.74474456  1
  F  F20  1  0.55370125  0.76801998  0.00445461  1
  F  F21  1  0.44632963  0.74671042  0.24285992  1
  F  F22  1  0.45225256  0.75475657  0.45748127  1
  F  F23  1  0.42861689  0.73226603  0.76665590  1
  F  F24  1  0.21387988  0.03333797  0.98194263  1
  F  F25  1  0.28714398  0.03421812  0.23373971  1
  F  F26  1  0.20282241  0.03139397  0.50465176  1
  F  F27  1  0.25408718  0.95390626  0.75285772  1
  F  F28  1  0.72347635  0.96070366  0.00016409  1
  F  F29  1  0.75813722  0.07008147  0.24195090  1
  F  F30  1  0.71118613  0.92614556  0.51625164  1
  F  F31  1  0.73301350  0.02486268  0.75186045  1
  F  F32  1  0.10629502  0.11446179  0.13971463  1
  F  F33  1  0.15848837  0.18868522  0.33515686  1
  F  F34  1  0.13055991  0.18665960  0.63606861  1
  F  F35  1  0.14222330  0.14608485  0.84328848  1
  F  F36  1  0.59165612  0.09154827  0.09949499  1
  F  F37  1  0.62056767  0.14012889  0.38371003  1
  F  F38  1  0.64977836  0.13350824  0.59601241  1
  F  F39  1  0.67851114  0.17161976  0.87990510  1
  F  F40  1  0.41144890  0.40952661  0.16043014  1
  F  F41  1  0.35036614  0.33547024  0.33387237  1
  F  F42  1  0.31552734  0.36876476  0.64359544  1
  F  F43  1  0.35796402  0.32875662  0.84511226  1
  F  F44  1  0.12112993  0.60289123  0.11076624  1
  F  F45  1  0.20872032  0.64922307  0.41229768  1
  F  F46  1  0.13005700  0.64566791  0.57767058  1
  F  F47  1  0.13813167  0.66656772  0.89102654  1
  F  F48  1  0.90852982  0.40924803  0.10693629  1
  F  F49  1  0.84878850  0.33713844  0.40420262  1
  F  F50  1  0.83323255  0.34862461  0.58855474  1
  F  F51  1  0.85342082  0.35063107  0.89746142  1
  F  F52  1  0.65308834  0.61884380  0.15383317  1
  F  F53  1  0.67210767  0.63568151  0.34608951  1
  F  F54  1  0.62121793  0.63188428  0.64214589  1
  F  F55  1  0.65794662  0.64975252  0.88069840  1
  F  F56  1  0.39374255  0.91013049  0.08335682  1
  F  F57  1  0.27682990  0.86925498  0.36720211  1
  F  F58  1  0.35038821  0.83944454  0.59425362  1
  F  F59  1  0.33727307  0.82997078  0.90899037  1
  F  F60  1  0.88034062  0.88302825  0.15072823  1
  F  F61  1  0.80881528  0.84414013  0.36415707  1
  F  F62  1  0.85452796  0.86443157  0.64996289  1
  F  F63  1  0.84108215  0.84844398  0.88161967  1
  F  F64  1  0.85637436  0.15947400  0.08751710  1
  F  F65  1  0.84680748  0.09031389  0.41007338  1
  F  F66  1  0.90047942  0.11690797  0.59169392  1
  F  F67  1  0.90782250  0.10831898  0.90765580  1
  F  F68  1  0.32835852  0.18268890  0.10049869  1
  F  F69  1  0.38622483  0.07359821  0.38839548  1
  F  F70  1  0.36994715  0.12174948  0.64677007  1
  F  F71  1  0.43202836  0.08037076  0.86152953  1
  F  F72  1  0.15100430  0.33991535  0.15544292  1
  F  F73  1  0.08115265  0.44835530  0.34591272  1
  F  F74  1  0.07905260  0.41386815  0.62371131  1
  F  F75  1  0.11086036  0.42018216  0.85093183  1
  F  F76  1  0.90350627  0.64524287  0.17539679  1
  F  F77  1  0.93573164  0.64156061  0.37911754  1
  F  F78  1  0.85565566  0.63584520  0.61676859  1
  F  F79  1  0.91005339  0.59972329  0.85996464  1
  F  F80  1  0.64655234  0.32539017  0.16179164  1
  F  F81  1  0.59375330  0.36246697  0.33612254  1
  F  F82  1  0.57392207  0.40403304  0.62012651  1
  F  F83  1  0.60173262  0.41034467  0.86593426  1
  F  F84  1  0.36837560  0.65279441  0.08765266  1
  F  F85  1  0.43591321  0.54845227  0.35848502  1
  F  F86  1  0.37359657  0.60017587  0.59255606  1
  F  F87  1  0.38493691  0.59218768  0.89783111  1
  F  F88  1  0.16310975  0.85380529  0.09598203  1
  F  F89  1  0.03910363  0.97895078  0.34633297  1
  F  F90  1  0.09346635  0.92892315  0.63360143  1
  F  F91  1  0.07723692  0.90504610  0.87014482  1
  F  F92  1  0.63920537  0.85828153  0.14567658  1
  F  F93  1  0.55864903  0.90481019  0.35238400  1
  F  F94  1  0.59554388  0.85938862  0.66722839  1
  F  F95  1  0.60160789  0.88338286  0.86187251  1
  Li  Li96  1  0.06190787  0.04842800  0.92855877  1
  Li  Li97  1  0.90379770  0.07766452  0.30047188  1
  Li  Li98  1  0.05565495  0.06731927  0.55766212  1
  Li  Li99  1  0.09391583  0.89448913  0.75309677  1
  Li  Li100  1  0.55140403  0.94596913  0.04953363  1
  Li  Li101  1  0.44433564  0.02530204  0.27357885  1
  Li  Li102  1  0.42193321  0.90999077  0.42229700  1
  Li  Li103  1  0.58443501  0.95153780  0.76034210  1
  Li  Li104  1  0.20598933  0.27772729  0.04849176  1
  Li  Li105  1  0.21862139  0.19942171  0.22017812  1
  Li  Li106  1  0.16995241  0.31332937  0.54260438  1
  Li  Li107  1  0.26557101  0.23361358  0.70178083  1
  Li  Li108  1  0.97572001  0.55784950  0.07487953  1
  Li  Li109  1  0.95368534  0.55870786  0.27647912  1
  Li  Li110  1  0.06336274  0.63232893  0.46493688  1
  Li  Li111  1  0.06492227  0.58113292  0.80269954  1
  Li  Li112  1  0.85449964  0.22970670  0.98345308  1
  Li  Li113  1  0.65858205  0.20414795  0.26541880  1
  Li  Li114  1  0.84820503  0.21726567  0.48883906  1
  Li  Li115  1  0.77301767  0.27500452  0.80401609  1
  Li  Li116  1  0.57045353  0.43805765  0.97799465  1
  Li  Li117  1  0.46197530  0.42997847  0.27303522  1
  Li  Li118  1  0.41239202  0.43186037  0.55098668  1
  Li  Li119  1  0.58316449  0.41485228  0.74293892  1
  Li  Li120  1  0.29712388  0.78753257  0.03192015  1
  Li  Li121  1  0.23367513  0.72842016  0.30202395  1
  Li  Li122  1  0.30685756  0.70616678  0.50333523  1
  Li  Li123  1  0.27723180  0.69867506  0.82803767  1
  Li  Li124  1  0.70681792  0.79610262  0.94222894  1
  Li  Li125  1  0.76876613  0.75187681  0.17163647  1
  Li  Li126  1  0.78456309  0.68936885  0.42149437  1
  Li  Li127  1  0.73483604  0.75122125  0.65177729  1
  Zn  Zn128  1  0.99286260  0.25349291  0.13621220  1
  Zn  Zn129  1  0.01590395  0.29174881  0.36596866  1
  Zn  Zn130  1  0.97191238  0.27450779  0.64158191  1
  Zn  Zn131  1  0.02415348  0.27091898  0.86769163  1
  Zn  Zn132  1  0.49440181  0.24156335  0.12067214  1
  Zn  Zn133  1  0.47141397  0.23143130  0.38628235  1
  Zn  Zn134  1  0.51498061  0.22907107  0.62148155  1
  Zn  Zn135  1  0.50804911  0.23756000  0.87364012  1
  Zn  Zn136  1  0.26653563  0.50935879  0.13227360  1
  Zn  Zn137  1  0.25986216  0.48601539  0.36775716  1
  Zn  Zn138  1  0.22013413  0.52131814  0.63997426  1
  Zn  Zn139  1  0.27124011  0.46187758  0.89203374  1
  Zn  Zn140  1  0.02459655  0.77013944  0.13861243  1
  Zn  Zn141  1  0.98150995  0.81892308  0.36543086  1
  Zn  Zn142  1  0.99426892  0.75943508  0.61771689  1
  Zn  Zn143  1  0.98874650  0.75692880  0.90362650  1
  Zn  Zn144  1  0.74388031  0.46624421  0.13993520  1
  Zn  Zn145  1  0.72878455  0.45846294  0.37189497  1
  Zn  Zn146  1  0.73969344  0.49607270  0.60928804  1
  Zn  Zn147  1  0.76308279  0.50756127  0.87356277  1
  Zn  Zn148  1  0.51427975  0.72953755  0.12898479  1
  Zn  Zn149  1  0.51575828  0.70630995  0.35011335  1
  Zn  Zn150  1  0.47495538  0.73231979  0.64684803  1
  Zn  Zn151  1  0.49751808  0.73644647  0.88429363  1
  Zn  Zn152  1  0.25116632  0.01275507  0.10939975  1
  Zn  Zn153  1  0.20843363  0.02871710  0.37071522  1
  Zn  Zn154  1  0.26330511  0.98448836  0.62231184  1
  Zn  Zn155  1  0.28166250  0.99722179  0.87166775  1
  Zn  Zn156  1  0.75714823  0.01530871  0.12383603  1
  Zn  Zn157  1  0.70504566  0.98538350  0.40097913  1
  Zn  Zn158  1  0.76067441  0.00637817  0.62241504  1
  Zn  Zn159  1  0.76322816  0.01100645  0.87850308  1
