# generated using pymatgen
data_MgAgCl3
_symmetry_space_group_name_H-M   'P 1'
_cell_length_a   13.89934910
_cell_length_b   13.89934910
_cell_length_c   19.65664700
_cell_angle_alpha   90.00000000
_cell_angle_beta   90.00000000
_cell_angle_gamma   90.00000000
_symmetry_Int_Tables_number   1
_chemical_formula_structural   MgAgCl3
_chemical_formula_sum   'Mg32 Ag32 Cl96'
_cell_volume   3797.50508570
_cell_formula_units_Z   32
loop_
 _symmetry_equiv_pos_site_id
 _symmetry_equiv_pos_as_xyz
  1  'x, y, z'
loop_
 _atom_site_type_symbol
 _atom_site_label
 _atom_site_symmetry_multiplicity
 _atom_site_fract_x
 _atom_site_fract_y
 _atom_site_fract_z
 _atom_site_occupancy
  Ag  Ag0  1  -0.01687282  0.05813968  -0.00009522  1
  Ag  Ag1  1  0.00467140  0.00166456  0.25052786  1
  Ag  Ag2  1  -0.01628035  0.94278789  0.49979257  1
  Ag  Ag3  1  0.00454633  0.01247388  0.75673311  1
  Ag  Ag4  1  0.48312055  0.05714678  -0.00037122  1
  Ag  Ag5  1  0.50451611  0.01318122  0.24353362  1
  Ag  Ag6  1  0.48253968  -0.06008510  0.49911687  1
  Ag  Ag7  1  0.50381680  -0.01863203  0.74134980  1
  Ag  Ag8  1  0.26691125  0.30750646  -0.00039242  1
  Ag  Ag9  1  0.24573320  0.24021288  0.25492638  1
  Ag  Ag10  1  0.26715166  0.19226946  0.49906464  1
  Ag  Ag11  1  0.24648892  0.23793403  0.74513894  1
  Ag  Ag12  1  -0.01701992  0.55749726  -0.00026269  1
  Ag  Ag13  1  0.00398293  0.51159065  0.24487659  1
  Ag  Ag14  1  -0.01670931  0.44238645  0.49976480  1
  Ag  Ag15  1  0.00391700  0.50217655  0.75073425  1
  Ag  Ag16  1  0.76681457  0.30732985  -0.00106268  1
  Ag  Ag17  1  0.74582023  0.26611754  0.24292649  1
  Ag  Ag18  1  0.76700175  0.19273171  0.49923992  1
  Ag  Ag19  1  0.74525639  0.24268303  0.74582242  1
  Ag  Ag20  1  0.48330256  0.55672182  0.99954140  1
  Ag  Ag21  1  0.50484417  0.50672913  0.24687503  1
  Ag  Ag22  1  0.48349165  0.44206525  0.49976805  1
  Ag  Ag23  1  0.50512585  0.49195291  0.74752310  1
  Ag  Ag24  1  0.26695294  0.80707051  -0.00064265  1
  Ag  Ag25  1  0.24618522  0.73739931  0.25621016  1
  Ag  Ag26  1  0.26738834  0.69176449  0.49994474  1
  Ag  Ag27  1  0.24600397  0.73986224  0.74584833  1
  Ag  Ag28  1  0.76741944  0.80771685  -0.00013022  1
  Ag  Ag29  1  0.74631643  0.76256220  0.24437076  1
  Ag  Ag30  1  0.76702913  0.69235088  0.49905028  1
  Ag  Ag31  1  0.74697482  0.76037789  0.75524281  1
  Cl  Cl32  1  -0.05415277  0.27369356  -0.00012376  1
  Cl  Cl33  1  0.05857777  0.24866222  0.25007996  1
  Cl  Cl34  1  0.94642085  0.22575088  0.50002114  1
  Cl  Cl35  1  0.05866296  0.24984264  0.74972281  1
  Cl  Cl36  1  0.44593403  0.27360149  0.00062127  1
  Cl  Cl37  1  0.55818290  0.24798238  0.24979465  1
  Cl  Cl38  1  0.44638336  0.22536697  0.50039781  1
  Cl  Cl39  1  0.55817261  0.25145746  0.74999529  1
  Cl  Cl40  1  0.30402606  0.52371018  0.00020439  1
  Cl  Cl41  1  0.19177700  0.50159334  0.25001172  1
  Cl  Cl42  1  0.30445703  0.47612014  0.50026165  1
  Cl  Cl43  1  0.19142318  0.50128532  0.75017618  1
  Cl  Cl44  1  -0.05345915  0.77438634  0.00036353  1
  Cl  Cl45  1  0.05844840  0.74806301  0.25017554  1
  Cl  Cl46  1  -0.05388358  0.72633689  0.50020303  1
  Cl  Cl47  1  0.05870025  0.74941839  0.75009700  1
  Cl  Cl48  1  0.80388885  0.52395107  0.00022483  1
  Cl  Cl49  1  0.69211958  0.49652601  0.24956689  1
  Cl  Cl50  1  0.80430311  0.47590854  0.50022551  1
  Cl  Cl51  1  0.69199179  0.50060831  0.74986914  1
  Cl  Cl52  1  0.44608972  0.77350156  0.00042358  1
  Cl  Cl53  1  0.55896203  0.74761247  0.24961582  1
  Cl  Cl54  1  0.44676210  0.72442343  0.50051778  1
  Cl  Cl55  1  0.55895792  0.75260268  0.75022169  1
  Cl  Cl56  1  0.30390767  0.02389536  -0.00010620  1
  Cl  Cl57  1  0.19198583  -0.00002993  0.24988707  1
  Cl  Cl58  1  0.30378045  -0.02479959  0.49979182  1
  Cl  Cl59  1  0.19204807  0.00243963  0.74996486  1
  Cl  Cl60  1  0.80386177  0.02435921  0.00069792  1
  Cl  Cl61  1  0.69180254  0.99756301  0.24984561  1
  Cl  Cl62  1  0.80443868  -0.02386614  0.50066741  1
  Cl  Cl63  1  0.69191969  -0.00047464  0.74998413  1
  Cl  Cl64  1  0.09373423  0.11059674  0.09990596  1
  Cl  Cl65  1  0.15718508  0.13829973  0.39919765  1
  Cl  Cl66  1  0.15742359  0.13968302  0.60012790  1
  Cl  Cl67  1  0.09215241  0.11072894  0.89868575  1
  Cl  Cl68  1  0.59241467  0.10972241  0.10113238  1
  Cl  Cl69  1  0.65573311  0.13749685  0.40061590  1
  Cl  Cl70  1  0.65811110  0.13991656  0.60114601  1
  Cl  Cl71  1  0.59457682  0.11215152  0.90090832  1
  Cl  Cl72  1  0.40686904  0.41595216  0.15441790  1
  Cl  Cl73  1  0.34360991  0.33347591  0.34598105  1
  Cl  Cl74  1  0.34380391  0.33374422  0.65480688  1
  Cl  Cl75  1  0.40673525  0.41582465  0.84607296  1
  Cl  Cl76  1  0.09270306  0.60987538  0.10070626  1
  Cl  Cl77  1  0.15706515  0.63859843  0.39976632  1
  Cl  Cl78  1  0.15779868  0.63966270  0.60092474  1
  Cl  Cl79  1  0.09392271  0.61153951  0.90032570  1
  Cl  Cl80  1  0.90635135  0.41581389  0.15465198  1
  Cl  Cl81  1  0.84311559  0.33385056  0.34577740  1
  Cl  Cl82  1  0.84394576  0.33431183  0.65428807  1
  Cl  Cl83  1  0.90669869  0.41652686  0.84569116  1
  Cl  Cl84  1  0.59305608  0.60989717  0.10044016  1
  Cl  Cl85  1  0.65637932  0.63731791  0.39976541  1
  Cl  Cl86  1  0.65671567  0.63910424  0.59972317  1
  Cl  Cl87  1  0.59385039  0.61201503  0.90008899  1
  Cl  Cl88  1  0.40692041  0.91610782  0.15395863  1
  Cl  Cl89  1  0.34407037  0.83279943  0.34614977  1
  Cl  Cl90  1  0.34440416  0.83432757  0.65528098  1
  Cl  Cl91  1  0.40764520  0.91599437  0.84581654  1
  Cl  Cl92  1  0.90686671  0.91574040  0.15556513  1
  Cl  Cl93  1  0.84326855  0.83438000  0.34558075  1
  Cl  Cl94  1  0.84333963  0.83435380  0.65474055  1
  Cl  Cl95  1  0.90606080  0.91613655  0.84602010  1
  Cl  Cl96  1  0.84388917  0.16647089  0.15462548  1
  Cl  Cl97  1  0.90663446  0.08384230  0.34628554  1
  Cl  Cl98  1  0.90728471  0.08477820  0.65538883  1
  Cl  Cl99  1  0.84314801  0.16592722  0.84478087  1
  Cl  Cl100  1  0.34339618  0.16500955  0.15517132  1
  Cl  Cl101  1  0.40670599  0.08384191  0.34503279  1
  Cl  Cl102  1  0.40604241  0.08378511  0.65443693  1
  Cl  Cl103  1  0.34308690  0.16611359  0.84634758  1
  Cl  Cl104  1  0.15660756  0.36057089  0.10020305  1
  Cl  Cl105  1  0.09426573  0.38805959  0.40029592  1
  Cl  Cl106  1  0.09393140  0.38925008  0.60005390  1
  Cl  Cl107  1  0.15581447  0.36152499  0.90029215  1
  Cl  Cl108  1  0.84409320  0.66570153  0.15471018  1
  Cl  Cl109  1  0.90699953  0.58377745  0.34580218  1
  Cl  Cl110  1  0.90708646  0.58420227  0.65408183  1
  Cl  Cl111  1  0.84395815  0.66643544  0.84622684  1
  Cl  Cl112  1  0.65757862  0.35939132  0.10079078  1
  Cl  Cl113  1  0.59394221  0.38783092  0.40013178  1
  Cl  Cl114  1  0.59328848  0.38928427  0.60050277  1
  Cl  Cl115  1  0.65558316  0.36219262  0.90038835  1
  Cl  Cl116  1  0.34346495  0.66531620  0.15489119  1
  Cl  Cl117  1  0.40646989  0.58381640  0.34508926  1
  Cl  Cl118  1  0.40658583  0.58390871  0.65572842  1
  Cl  Cl119  1  0.34331240  0.66571075  0.84588814  1
  Cl  Cl120  1  0.15666032  0.86027483  0.09984829  1
  Cl  Cl121  1  0.09322799  0.88847768  0.39931326  1
  Cl  Cl122  1  0.09411851  0.88893397  0.59981730  1
  Cl  Cl123  1  0.15665293  0.86170487  0.89974900  1
  Cl  Cl124  1  0.65772901  0.85988272  0.10082536  1
  Cl  Cl125  1  0.59470904  0.88714367  0.40055317  1
  Cl  Cl126  1  0.59218694  0.89020768  0.60129694  1
  Cl  Cl127  1  0.65697700  0.86140841  0.90000087  1
  Mg  Mg128  1  0.00207124  0.26371072  0.12739117  1
  Mg  Mg129  1  0.00057894  0.23638513  0.37225052  1
  Mg  Mg130  1  0.00097500  0.23661701  0.62700050  1
  Mg  Mg131  1  0.00152272  0.26519669  0.87275542  1
  Mg  Mg132  1  0.50030124  0.26392868  0.12747324  1
  Mg  Mg133  1  0.50177581  0.23555114  0.37308778  1
  Mg  Mg134  1  0.50142139  0.23557433  0.62741990  1
  Mg  Mg135  1  0.50106254  0.26363795  0.87266140  1
  Mg  Mg136  1  0.24935551  0.51285348  0.12734848  1
  Mg  Mg137  1  0.24847254  0.48461716  0.37286687  1
  Mg  Mg138  1  0.24863741  0.48543259  0.62751849  1
  Mg  Mg139  1  0.24912395  0.51343024  0.87279306  1
  Mg  Mg140  1  0.00227687  0.76434106  0.12707059  1
  Mg  Mg141  1  0.00012918  0.73589009  0.37288305  1
  Mg  Mg142  1  0.00088533  0.73687925  0.62787962  1
  Mg  Mg143  1  0.00224012  0.76446509  0.87279515  1
  Mg  Mg144  1  0.74891126  0.51430184  0.12685270  1
  Mg  Mg145  1  0.74929930  0.48562796  0.37295856  1
  Mg  Mg146  1  0.74928773  0.48660062  0.62761190  1
  Mg  Mg147  1  0.74824116  0.51429986  0.87238250  1
  Mg  Mg148  1  0.50057203  0.76378067  0.12771411  1
  Mg  Mg149  1  0.50222548  0.73548403  0.37246134  1
  Mg  Mg150  1  0.50253871  0.73448356  0.62707716  1
  Mg  Mg151  1  0.50030842  0.76360111  0.87296519  1
  Mg  Mg152  1  0.24901777  0.01260841  0.12710227  1
  Mg  Mg153  1  0.24915760  -0.01544016  0.37247606  1
  Mg  Mg154  1  0.24820930  -0.01454094  0.62694971  1
  Mg  Mg155  1  0.25031226  0.01345650  0.87245828  1
  Mg  Mg156  1  0.74935388  0.01461463  0.12767764  1
  Mg  Mg157  1  0.74872890  -0.01371980  0.37284740  1
  Mg  Mg158  1  0.75038929  -0.01360408  0.62741785  1
  Mg  Mg159  1  0.74800454  0.01492255  0.87325546  1
