# generated using pymatgen
data_MgInBr3
_symmetry_space_group_name_H-M   'P 1'
_cell_length_a   15.90627370
_cell_length_b   15.90627370
_cell_length_c   22.49486700
_cell_angle_alpha   90.00000000
_cell_angle_beta   90.00000000
_cell_angle_gamma   90.00000000
_symmetry_Int_Tables_number   1
_chemical_formula_structural   MgInBr3
_chemical_formula_sum   'Mg32 In32 Br96'
_cell_volume   5691.41602331
_cell_formula_units_Z   32
loop_
 _symmetry_equiv_pos_site_id
 _symmetry_equiv_pos_as_xyz
  1  'x, y, z'
loop_
 _atom_site_type_symbol
 _atom_site_label
 _atom_site_symmetry_multiplicity
 _atom_site_fract_x
 _atom_site_fract_y
 _atom_site_fract_z
 _atom_site_occupancy
  Mg  Mg0  1  0.87939374  0.04562350  0.94422176  1
  Mg  Mg1  1  0.03780386  0.96719471  0.21120769  1
  Mg  Mg2  1  0.96202509  0.98568721  0.41819036  1
  Mg  Mg3  1  0.05856765  0.02498239  0.55858302  1
  Mg  Mg4  1  0.63530025  0.00098332  0.03106614  1
  Mg  Mg5  1  0.39863532  0.12451927  0.24870643  1
  Mg  Mg6  1  0.45618014  0.13383869  0.47083002  1
  Mg  Mg7  1  0.62833618  0.04137886  0.73955427  1
  Mg  Mg8  1  0.12173667  0.15055107  0.93540260  1
  Mg  Mg9  1  0.32554371  0.28317436  0.18099008  1
  Mg  Mg10  1  0.31673611  0.27166880  0.31711011  1
  Mg  Mg11  1  0.19753183  0.10829781  0.78550608  1
  Mg  Mg12  1  0.04746262  0.43201463  0.90852192  1
  Mg  Mg13  1  0.88108696  0.41682273  0.24029816  1
  Mg  Mg14  1  0.14415796  0.58998580  0.57793295  1
  Mg  Mg15  1  0.03119646  0.48616066  0.70946257  1
  Mg  Mg16  1  0.75211447  0.26122017  0.07412815  1
  Mg  Mg17  1  0.73170839  0.13871087  0.42920116  1
  Mg  Mg18  1  0.66591496  0.11479797  0.58254399  1
  Mg  Mg19  1  0.76837844  0.42620971  0.70265306  1
  Mg  Mg20  1  0.36391207  0.55055541  0.93331274  1
  Mg  Mg21  1  0.46366733  0.60797286  0.21306661  1
  Mg  Mg22  1  0.46081961  0.62614635  0.53183039  1
  Mg  Mg23  1  0.57316734  0.30912776  0.74180979  1
  Mg  Mg24  1  0.24394862  0.72520493  0.93240988  1
  Mg  Mg25  1  0.23131262  0.61731938  0.26650940  1
  Mg  Mg26  1  0.18652676  0.82353794  0.58751864  1
  Mg  Mg27  1  0.37673126  0.84542817  0.79282008  1
  Mg  Mg28  1  0.78893272  0.82828834  0.95101889  1
  Mg  Mg29  1  0.69374808  0.62984806  0.27929212  1
  Mg  Mg30  1  0.57313915  0.88074213  0.47682248  1
  Mg  Mg31  1  0.62918912  0.82658548  0.83316242  1
  In  In32  1  0.00224025  0.21832352  0.13094272  1
  In  In33  1  0.94823052  0.30211463  0.38854044  1
  In  In34  1  0.95597874  0.30813768  0.54220935  1
  In  In35  1  0.91447044  0.28163352  0.83123635  1
  In  In36  1  0.56965623  0.37528695  0.16190790  1
  In  In37  1  0.56973385  0.29304717  0.31337221  1
  In  In38  1  0.42248498  0.36778828  0.57863509  1
  In  In39  1  0.48999320  0.35114825  0.94923554  1
  In  In40  1  0.22309695  0.47116591  0.07765166  1
  In  In41  1  0.22115780  0.45727605  0.39088165  1
  In  In42  1  0.36312759  0.51921759  0.68123934  1
  In  In43  1  0.31128943  0.34754898  0.75595805  1
  In  In44  1  0.03193646  0.72739587  0.10142258  1
  In  In45  1  -0.00148626  0.68800083  0.31188645  1
  In  In46  1  0.96119313  0.72969396  0.67746703  1
  In  In47  1  0.96768398  0.67644939  0.91267259  1
  In  In48  1  0.76640053  0.57264877  0.10871234  1
  In  In49  1  0.72556603  0.46809726  0.40747272  1
  In  In50  1  0.70478324  0.59060315  0.56504875  1
  In  In51  1  0.65242959  0.55756269  0.83767235  1
  In  In52  1  0.48697916  0.76192824  0.07011192  1
  In  In53  1  0.43504944  0.80423146  0.33110606  1
  In  In54  1  0.53694008  0.81984038  0.66597445  1
  In  In55  1  0.34251556  0.70011102  0.71970125  1
  In  In56  1  0.25850681  0.01662456  0.12495490  1
  In  In57  1  0.24190896  0.92016508  0.36619987  1
  In  In58  1  0.32644094  0.05630542  0.62021230  1
  In  In59  1  0.36275858  0.02142459  0.93589278  1
  In  In60  1  0.71430194  0.01438017  0.20603444  1
  In  In61  1  0.79358639  0.85086203  0.30631293  1
  In  In62  1  0.90074283  0.98598138  0.66973422  1
  In  In63  1  0.67335104  0.22555725  0.91646141  1
  Br  Br64  1  0.01881619  0.05834542  0.99606632  1
  Br  Br65  1  0.98493746  0.29464877  0.26211561  1
  Br  Br66  1  0.81837351  0.43889109  0.51996508  1
  Br  Br67  1  0.21342560  0.18891249  0.69254216  1
  Br  Br68  1  0.66199482  0.38203578  0.04277334  1
  Br  Br69  1  0.55706373  0.13809040  0.23810159  1
  Br  Br70  1  0.55986299  0.21858806  0.53839550  1
  Br  Br71  1  0.57404839  0.16665978  0.80099829  1
  Br  Br72  1  0.30978724  0.40470855  0.93680965  1
  Br  Br73  1  0.34660424  0.50678227  0.23238003  1
  Br  Br74  1  0.12341508  0.47001946  0.48392484  1
  Br  Br75  1  0.09386677  0.39421984  0.80332370  1
  Br  Br76  1  0.90359600  0.90125898  0.89150450  1
  Br  Br77  1  0.17970689  0.76566062  0.29518549  1
  Br  Br78  1  0.12658207  0.72103328  0.51087738  1
  Br  Br79  1  0.99495672  0.60889014  0.77550511  1
  Br  Br80  1  0.85032931  0.21612450  0.99484260  1
  Br  Br81  1  0.71874698  0.47917781  0.24555168  1
  Br  Br82  1  0.54749609  0.50842453  0.49140083  1
  Br  Br83  1  0.75910550  0.58087121  0.70581885  1
  Br  Br84  1  0.51869646  0.54362707  0.95050613  1
  Br  Br85  1  0.40149962  0.74837662  0.19286421  1
  Br  Br86  1  0.45798130  0.75193394  0.46435673  1
  Br  Br87  1  0.50888625  0.94486386  0.80846387  1
  Br  Br88  1  0.23039106  0.11270759  0.02147354  1
  Br  Br89  1  0.33575780  0.97362042  0.23570256  1
  Br  Br90  1  0.32803153  0.19429430  0.52419428  1
  Br  Br91  1  0.26152754  0.96294469  0.77851369  1
  Br  Br92  1  0.79485659  0.96669952  0.02698353  1
  Br  Br93  1  0.83511673  0.05316943  0.36518894  1
  Br  Br94  1  0.69139381  0.00326904  0.50097230  1
  Br  Br95  1  0.71498562  0.90617318  0.75275256  1
  Br  Br96  1  0.14954403  0.10446024  0.19148725  1
  Br  Br97  1  0.07415774  -0.00636011  0.32292500  1
  Br  Br98  1  0.04195380  0.11336512  0.46077526  1
  Br  Br99  1  0.05323800  0.10232804  0.83391048  1
  Br  Br100  1  0.66209965  0.13500183  0.09877967  1
  Br  Br101  1  0.57794440  0.13230545  0.39216813  1
  Br  Br102  1  0.74527093  0.12697165  0.68204549  1
  Br  Br103  1  0.54821020  0.08528537  0.96028055  1
  Br  Br104  1  0.40604630  0.36323553  0.09822839  1
  Br  Br105  1  0.37653474  0.38746747  0.38994530  1
  Br  Br106  1  0.44251717  0.25119380  0.68586419  1
  Br  Br107  1  0.49621727  0.41584734  0.80628160  1
  Br  Br108  1  0.17239229  0.62847012  0.15990429  1
  Br  Br109  1  0.12594337  0.50148278  0.29912546  1
  Br  Br110  1  0.15985780  0.70051000  0.67055433  1
  Br  Br111  1  0.09861523  0.55336323  0.96878232  1
  Br  Br112  1  0.93594921  0.52324389  0.16739824  1
  Br  Br113  1  0.90255948  0.47425301  0.34775853  1
  Br  Br114  1  0.91696784  0.36818968  0.69064883  1
  Br  Br115  1  0.89195677  0.44833957  0.90168737  1
  Br  Br116  1  0.54961314  0.56303996  0.12712548  1
  Br  Br117  1  0.53937047  0.62388489  0.31193739  1
  Br  Br118  1  0.52129242  0.62587451  0.63635234  1
  Br  Br119  1  0.53653291  0.70573638  0.80180560  1
  Br  Br120  1  0.35262288  0.91590124  0.05910890  1
  Br  Br121  1  0.44367976  0.97740013  0.49364611  1
  Br  Br122  1  0.34420607  0.81614362  0.60776383  1
  Br  Br123  1  0.36851592  0.82092839  0.90718223  1
  Br  Br124  1  0.95590597  0.82345228  0.21431866  1
  Br  Br125  1  0.93868908  0.82987129  0.39519217  1
  Br  Br126  1  0.92775621  0.93839189  0.53194216  1
  Br  Br127  1  0.75854139  0.72850532  0.85873871  1
  Br  Br128  1  0.91429960  0.05631251  0.17913353  1
  Br  Br129  1  0.79273611  0.19655961  0.52573281  1
  Br  Br130  1  0.99716370  0.13559902  0.62912109  1
  Br  Br131  1  0.79352102  0.10331162  0.85847927  1
  Br  Br132  1  0.38306836  0.13838943  0.13006900  1
  Br  Br133  1  0.35624145  0.12412571  0.36627100  1
  Br  Br134  1  0.54718953  0.02724043  0.64238275  1
  Br  Br135  1  0.26207118  0.18594632  0.87270328  1
  Br  Br136  1  0.17722440  0.33094230  0.16219256  1
  Br  Br137  1  0.17260858  0.29560536  0.36940561  1
  Br  Br138  1  0.16712813  0.45709644  0.65159298  1
  Br  Br139  1  0.07742953  0.29843209  0.96837876  1
  Br  Br140  1  0.72383803  0.72379114  0.19449000  1
  Br  Br141  1  0.77030625  0.67595567  0.36906687  1
  Br  Br142  1  0.98332048  0.56886976  0.60730281  1
  Br  Br143  1  0.84274269  0.72318579  0.02516367  1
  Br  Br144  1  0.80119224  0.29321257  0.17663992  1
  Br  Br145  1  0.75361653  0.27376764  0.36105219  1
  Br  Br146  1  0.64281955  0.37026989  0.64664655  1
  Br  Br147  1  0.72383674  0.35117412  0.79845158  1
  Br  Br148  1  0.31678134  0.64826135  0.01805062  1
  Br  Br149  1  0.29390088  0.60702843  0.38111134  1
  Br  Br150  1  0.31335151  0.56887904  0.55276063  1
  Br  Br151  1  0.27389688  0.61600442  0.85108313  1
  Br  Br152  1  0.13569985  0.89833338  0.12998898  1
  Br  Br153  1  0.19537012  0.95676502  0.51414269  1
  Br  Br154  1  0.09624081  0.92495004  0.65340433  1
  Br  Br155  1  0.11343041  0.80032001  0.95116229  1
  Br  Br156  1  0.59184023  0.91476034  0.11925004  1
  Br  Br157  1  0.60049898  0.88117562  0.36504711  1
  Br  Br158  1  0.64940884  0.79744104  0.55674248  1
  Br  Br159  1  0.62603685  0.85952595  0.94900740  1
