# generated using pymatgen
data_MgTlBr3
_symmetry_space_group_name_H-M   'P 1'
_cell_length_a   16.32762025
_cell_length_b   16.32762025
_cell_length_c   23.09074300
_cell_angle_alpha   90.00000000
_cell_angle_beta   90.00000000
_cell_angle_gamma   90.00000000
_symmetry_Int_Tables_number   1
_chemical_formula_structural   MgTlBr3
_chemical_formula_sum   'Mg32 Tl32 Br96'
_cell_volume   6155.78849400
_cell_formula_units_Z   32
loop_
 _symmetry_equiv_pos_site_id
 _symmetry_equiv_pos_as_xyz
  1  'x, y, z'
loop_
 _atom_site_type_symbol
 _atom_site_label
 _atom_site_symmetry_multiplicity
 _atom_site_fract_x
 _atom_site_fract_y
 _atom_site_fract_z
 _atom_site_occupancy
  Mg  Mg0  1  0.85391343  0.20778745  0.95228300  1
  Mg  Mg1  1  0.99537250  0.04551209  0.17817794  1
  Mg  Mg2  1  0.09863348  0.92715236  0.60004692  1
  Mg  Mg3  1  0.07549677  0.94170218  0.77632591  1
  Mg  Mg4  1  0.43490846  0.22764733  0.03593831  1
  Mg  Mg5  1  0.41045140  0.09382103  0.23680970  1
  Mg  Mg6  1  0.56046916  0.01382569  0.54228230  1
  Mg  Mg7  1  0.61739018  0.05866469  0.69236772  1
  Mg  Mg8  1  0.07294775  0.17877344  0.00566286  1
  Mg  Mg9  1  0.32842437  0.26969653  0.17906933  1
  Mg  Mg10  1  0.19037043  0.24472620  0.41635255  1
  Mg  Mg11  1  0.31264211  0.28815385  0.71496869  1
  Mg  Mg12  1  0.04170925  0.40762255  0.01461757  1
  Mg  Mg13  1  0.00169022  0.58123855  0.23039193  1
  Mg  Mg14  1  0.07018926  0.41369691  0.49249307  1
  Mg  Mg15  1  0.89570538  0.55622904  0.72992684  1
  Mg  Mg16  1  0.66897234  0.19160949  0.03393449  1
  Mg  Mg17  1  0.60760575  0.20007422  0.18778913  1
  Mg  Mg18  1  0.74135867  0.12651811  0.46970901  1
  Mg  Mg19  1  0.79108738  0.19113422  0.66872881  1
  Mg  Mg20  1  0.43365307  0.66864070  0.98418309  1
  Mg  Mg21  1  0.61756695  0.62238099  0.24474488  1
  Mg  Mg22  1  0.58427356  0.54607367  0.52909174  1
  Mg  Mg23  1  0.50230452  0.55060393  0.86308397  1
  Mg  Mg24  1  0.07363443  0.66771131  0.05700545  1
  Mg  Mg25  1  0.12362699  0.76512169  0.23202130  1
  Mg  Mg26  1  0.33149159  0.87888856  0.54254403  1
  Mg  Mg27  1  0.25379433  0.80822935  0.86457761  1
  Mg  Mg28  1  0.62759909  0.70076618  0.08825868  1
  Mg  Mg29  1  0.76815181  0.79895889  0.32822151  1
  Mg  Mg30  1  0.73423931  0.63235010  0.59806934  1
  Mg  Mg31  1  0.83484597  0.76092572  0.74940779  1
  Tl  Tl32  1  0.07238508  0.28490679  0.23380584  1
  Tl  Tl33  1  0.95130316  0.21787613  0.38627997  1
  Tl  Tl34  1  0.08145227  0.22283685  0.64473205  1
  Tl  Tl35  1  0.01327646  0.26146151  0.81392858  1
  Tl  Tl36  1  0.46382749  0.46878730  0.19393499  1
  Tl  Tl37  1  0.55415130  0.27666204  0.37759904  1
  Tl  Tl38  1  0.48509384  0.27869849  0.59203172  1
  Tl  Tl39  1  0.53446984  0.22150929  0.85887050  1
  Tl  Tl40  1  0.23837284  0.51459134  0.12588537  1
  Tl  Tl41  1  0.28859387  0.46798055  0.37462643  1
  Tl  Tl42  1  0.28319682  0.44553190  0.57770059  1
  Tl  Tl43  1  0.28810979  0.52301269  0.77785291  1
  Tl  Tl44  1  0.88995285  0.79329878  0.12174219  1
  Tl  Tl45  1  0.10378103  0.72947072  0.41915580  1
  Tl  Tl46  1  0.07871862  0.62446442  0.60445911  1
  Tl  Tl47  1  0.01836907  0.63419360  0.88459271  1
  Tl  Tl48  1  0.79942475  0.49484503  0.07324269  1
  Tl  Tl49  1  0.78423781  0.47008395  0.35777091  1
  Tl  Tl50  1  0.77799408  0.37743283  0.54226210  1
  Tl  Tl51  1  0.77617749  0.43305146  0.86383907  1
  Tl  Tl52  1  0.42401212  0.77625595  0.16823807  1
  Tl  Tl53  1  0.48235943  0.74034115  0.43686795  1
  Tl  Tl54  1  0.44215575  0.65488122  0.63771804  1
  Tl  Tl55  1  0.53461886  0.81828872  0.83316978  1
  Tl  Tl56  1  0.22147524  0.98795251  0.11133915  1
  Tl  Tl57  1  0.28552077  0.97840002  0.35606537  1
  Tl  Tl58  1  0.30977865  0.01586088  0.69235953  1
  Tl  Tl59  1  0.27167162  0.08228628  0.86737430  1
  Tl  Tl60  1  0.72365984  0.96813350  0.13194576  1
  Tl  Tl61  1  0.64776359  0.01548745  0.32232126  1
  Tl  Tl62  1  0.86455145  0.91758406  0.51699509  1
  Tl  Tl63  1  0.77353150  0.00911225  0.84155273  1
  Br  Br64  1  0.94061747  0.26739515  0.03809318  1
  Br  Br65  1  0.93791164  0.14229207  0.25029053  1
  Br  Br66  1  0.09166914  0.25571776  0.50292908  1
  Br  Br67  1  0.89766082  0.29253041  0.69260295  1
  Br  Br68  1  0.54161934  0.11804770  0.99756340  1
  Br  Br69  1  0.46832803  0.25915861  0.23495310  1
  Br  Br70  1  0.58433615  0.16112112  0.49893889  1
  Br  Br71  1  0.38706861  0.17914175  0.77088694  1
  Br  Br72  1  0.13650083  0.55351846  0.99840829  1
  Br  Br73  1  0.27875191  0.39733977  0.23568526  1
  Br  Br74  1  0.16051443  0.54155160  0.47374850  1
  Br  Br75  1  0.40802558  0.40600576  0.69299219  1
  Br  Br76  1  0.99530449  0.76681382  0.99993063  1
  Br  Br77  1  0.97466207  0.73140728  0.25829964  1
  Br  Br78  1  0.04300712  0.81244164  0.53947470  1
  Br  Br79  1  0.97870237  0.68799887  0.73958843  1
  Br  Br80  1  0.76301881  0.68848213  0.03925076  1
  Br  Br81  1  0.61184688  0.47338880  0.28811391  1
  Br  Br82  1  0.73637409  0.56897048  0.49174468  1
  Br  Br83  1  0.96477735  0.46491068  0.80087731  1
  Br  Br84  1  0.52500977  0.79364277  0.03937306  1
  Br  Br85  1  0.46523141  0.64371030  0.26641898  1
  Br  Br86  1  0.59969020  0.71246991  0.55137951  1
  Br  Br87  1  0.46268671  0.64403320  0.78054653  1
  Br  Br88  1  0.19419493  0.08304681  0.99077975  1
  Br  Br89  1  0.26269596  0.16615327  0.24773419  1
  Br  Br90  1  0.22561178  0.99214002  0.55312671  1
  Br  Br91  1  0.12146120  0.08907319  0.76661729  1
  Br  Br92  1  0.76367577  0.08633129  0.98084857  1
  Br  Br93  1  0.80224800  0.90961255  0.25364022  1
  Br  Br94  1  0.67923453  0.97635571  0.46790327  1
  Br  Br95  1  0.78319559  0.04929002  0.70816389  1
  Br  Br96  1  0.09383208  0.14369542  0.12235569  1
  Br  Br97  1  0.14103317  0.11184699  0.37908064  1
  Br  Br98  1  0.99830197  0.03675937  0.61212830  1
  Br  Br99  1  0.98254927  0.11877254  0.92380224  1
  Br  Br100  1  0.55409140  0.05127361  0.18942617  1
  Br  Br101  1  0.68123718  0.21848366  0.28109601  1
  Br  Br102  1  0.64006573  0.22174563  0.68593599  1
  Br  Br103  1  0.57853645  0.02534281  0.79570897  1
  Br  Br104  1  0.34431700  0.34888257  0.08413594  1
  Br  Br105  1  0.32979722  0.29964374  0.43765147  1
  Br  Br106  1  0.27973418  0.22725925  0.61791479  1
  Br  Br107  1  0.37511291  0.54245050  0.92552458  1
  Br  Br108  1  0.17072476  0.74732402  0.12423356  1
  Br  Br109  1  0.15239276  0.59588860  0.24747464  1
  Br  Br110  1  0.25331973  0.60003600  0.65462595  1
  Br  Br111  1  0.19020043  0.68097704  0.82628818  1
  Br  Br112  1  0.73279167  0.31746666  0.98580802  1
  Br  Br113  1  0.92734483  0.43375220  0.45880228  1
  Br  Br114  1  0.08433120  0.42747881  0.60355601  1
  Br  Br115  1  0.92168446  0.48198884  0.96784947  1
  Br  Br116  1  0.62617032  0.55810276  0.13730651  1
  Br  Br117  1  0.76231940  0.65025101  0.28598814  1
  Br  Br118  1  0.62840175  0.52799692  0.63707634  1
  Br  Br119  1  0.57516303  0.65010524  0.93028752  1
  Br  Br120  1  0.34673440  0.95118594  0.22364986  1
  Br  Br121  1  0.44764659  0.94055240  0.48249041  1
  Br  Br122  1  0.38270367  0.84272030  0.63975560  1
  Br  Br123  1  0.35214763  0.90085650  0.81232877  1
  Br  Br124  1  0.91214004  0.98667064  0.09739232  1
  Br  Br125  1  0.86816104  0.79157759  0.40932111  1
  Br  Br126  1  0.79285190  0.76537800  0.64166060  1
  Br  Br127  1  0.92717738  0.90067308  0.77766083  1
  Br  Br128  1  0.74134630  0.16477608  0.13081100  1
  Br  Br129  1  0.86492664  0.05944835  0.41770729  1
  Br  Br130  1  0.81925250  0.16903670  0.56177952  1
  Br  Br131  1  0.81971375  0.24298775  0.84760320  1
  Br  Br132  1  0.36865687  0.13345484  0.11418400  1
  Br  Br133  1  0.45593086  0.08478337  0.34259025  1
  Br  Br134  1  0.47709326  0.08246686  0.62946371  1
  Br  Br135  1  0.38006268  0.25270387  0.93612846  1
  Br  Br136  1  0.08125553  0.40026046  0.11978085  1
  Br  Br137  1  0.12159393  0.36787566  0.36758886  1
  Br  Br138  1  0.18519536  0.34327437  0.75973476  1
  Br  Br139  1  0.13064290  0.31201705  0.95600156  1
  Br  Br140  1  0.96429758  0.59939477  0.12207699  1
  Br  Br141  1  0.93112409  0.45589458  0.26169210  1
  Br  Br142  1  0.86857675  0.54112998  0.62320616  1
  Br  Br143  1  0.76766742  0.61162426  0.77517442  1
  Br  Br144  1  0.56516799  0.29177838  0.09474643  1
  Br  Br145  1  0.75657466  0.26945011  0.42140363  1
  Br  Br146  1  0.58413635  0.39469234  0.49888192  1
  Br  Br147  1  0.57707741  0.42232869  0.84132174  1
  Br  Br148  1  0.40885769  0.61095645  0.08527290  1
  Br  Br149  1  0.28407844  0.76894741  0.47599082  1
  Br  Br150  1  0.43317613  0.56767948  0.50260922  1
  Br  Br151  1  0.32485769  0.78012936  0.96135357  1
  Br  Br152  1  0.08954228  0.93143122  0.21522592  1
  Br  Br153  1  0.21787270  0.79374584  0.31430893  1
  Br  Br154  1  0.14995422  0.86547057  0.69558911  1
  Br  Br155  1  0.13079310  0.90400250  0.87670001  1
  Br  Br156  1  0.62512570  0.77204912  0.18613147  1
  Br  Br157  1  0.61849732  0.82094912  0.34917663  1
  Br  Br158  1  0.63685003  0.93804560  0.62204953  1
  Br  Br159  1  0.72919118  0.82310160  0.81712677  1
