# generated using pymatgen
data_NaCaCl3
_symmetry_space_group_name_H-M   'P 1'
_cell_length_a   15.16549450
_cell_length_b   15.16549450
_cell_length_c   21.44724900
_cell_angle_alpha   90.00000000
_cell_angle_beta   90.00000000
_cell_angle_gamma   90.00000000
_symmetry_Int_Tables_number   1
_chemical_formula_structural   NaCaCl3
_chemical_formula_sum   'Na32 Ca32 Cl96'
_cell_volume   4932.70048304
_cell_formula_units_Z   32
loop_
 _symmetry_equiv_pos_site_id
 _symmetry_equiv_pos_as_xyz
  1  'x, y, z'
loop_
 _atom_site_type_symbol
 _atom_site_label
 _atom_site_symmetry_multiplicity
 _atom_site_fract_x
 _atom_site_fract_y
 _atom_site_fract_z
 _atom_site_occupancy
  Na  Na0  1  0.00970710  0.00689595  -0.00276089  1
  Na  Na1  1  0.01442583  0.05042386  0.21965315  1
  Na  Na2  1  0.95535217  0.95196275  0.45066031  1
  Na  Na3  1  0.96460804  0.95059466  0.72591156  1
  Na  Na4  1  0.59756975  0.98393659  0.00248758  1
  Na  Na5  1  0.53003330  0.02380627  0.21146064  1
  Na  Na6  1  0.45195693  0.96344196  0.49606682  1
  Na  Na7  1  0.51371941  0.94080269  0.73142424  1
  Na  Na8  1  0.24215449  0.24029642  0.99379019  1
  Na  Na9  1  0.21729781  0.22026446  0.29293478  1
  Na  Na10  1  0.15247510  0.27511510  0.50420848  1
  Na  Na11  1  0.22129922  0.22070605  0.71066422  1
  Na  Na12  1  0.10904534  0.49314586  0.00390687  1
  Na  Na13  1  0.02953771  0.52836248  0.21381145  1
  Na  Na14  1  0.02310330  0.52685321  0.50016461  1
  Na  Na15  1  0.93344227  0.51268186  0.73674565  1
  Na  Na16  1  0.76896492  0.26986858  0.94661617  1
  Na  Na17  1  0.79066767  0.29692154  0.22645956  1
  Na  Na18  1  0.68691880  0.25498483  0.49981394  1
  Na  Na19  1  0.69604420  0.27475709  0.73314918  1
  Na  Na20  1  0.55900309  0.49294467  0.00031204  1
  Na  Na21  1  0.55637455  0.47311804  0.22815059  1
  Na  Na22  1  0.45954099  0.44939142  0.54357135  1
  Na  Na23  1  0.43015124  0.45098387  0.73009041  1
  Na  Na24  1  0.27283765  0.77311595  0.95712317  1
  Na  Na25  1  0.29362709  0.79873979  0.22599686  1
  Na  Na26  1  0.26655489  0.74730476  0.45067149  1
  Na  Na27  1  0.29283635  0.79926621  0.77902565  1
  Na  Na28  1  0.79991590  0.78955626  0.00107049  1
  Na  Na29  1  0.72318588  0.72261396  0.28827518  1
  Na  Na30  1  0.74852121  0.78343652  0.47271827  1
  Na  Na31  1  0.72372107  0.72708695  0.71045872  1
  Ca  Ca32  1  0.00486776  0.26228090  0.12061783  1
  Ca  Ca33  1  0.98226560  0.23987891  0.37927713  1
  Ca  Ca34  1  0.98359022  0.24083302  0.63304974  1
  Ca  Ca35  1  0.00954271  0.26739776  0.87645037  1
  Ca  Ca36  1  0.50074221  0.25489737  0.12379129  1
  Ca  Ca37  1  0.48949981  0.23935874  0.37099896  1
  Ca  Ca38  1  0.49395350  0.22772412  0.62753706  1
  Ca  Ca39  1  0.51183125  0.25730319  0.88039364  1
  Ca  Ca40  1  0.26829887  0.50780992  0.13383851  1
  Ca  Ca41  1  0.24360779  0.48458992  0.37756483  1
  Ca  Ca42  1  0.23544479  0.49331436  0.62369632  1
  Ca  Ca43  1  0.26858194  0.51128132  0.87799756  1
  Ca  Ca44  1  0.00624453  0.76105717  0.12827601  1
  Ca  Ca45  1  0.98873249  0.72943033  0.37729273  1
  Ca  Ca46  1  0.99511510  0.73559720  0.62637838  1
  Ca  Ca47  1  0.00743399  0.75364944  0.87603149  1
  Ca  Ca48  1  0.75954752  0.51437352  0.12194315  1
  Ca  Ca49  1  0.73921127  0.48718528  0.37850623  1
  Ca  Ca50  1  0.73919828  0.49351849  0.62245892  1
  Ca  Ca51  1  0.76002843  0.51687974  0.87726876  1
  Ca  Ca52  1  0.50862022  0.75567015  0.12440284  1
  Ca  Ca53  1  0.49502377  0.74423127  0.37638355  1
  Ca  Ca54  1  0.49394483  0.74055370  0.62303150  1
  Ca  Ca55  1  0.51694735  0.75996961  0.88125770  1
  Ca  Ca56  1  0.25429826  0.00886943  0.12195298  1
  Ca  Ca57  1  0.23966166  0.99449612  0.37963812  1
  Ca  Ca58  1  0.24382284  0.98917311  0.62650215  1
  Ca  Ca59  1  0.25975409  0.01799693  0.87825747  1
  Ca  Ca60  1  0.76578897  0.00541624  0.13112890  1
  Ca  Ca61  1  0.73487616  0.99881159  0.37505435  1
  Ca  Ca62  1  0.74374125  0.99568944  0.62874049  1
  Ca  Ca63  1  0.76541438  0.01173800  0.87205911  1
  Cl  Cl64  1  0.94606212  0.27414909  0.99977444  1
  Cl  Cl65  1  0.04411779  0.23477663  0.25198153  1
  Cl  Cl66  1  0.95353383  0.23223666  0.50609189  1
  Cl  Cl67  1  0.05631593  0.25783622  0.75169557  1
  Cl  Cl68  1  0.51968000  0.31634228  0.00293393  1
  Cl  Cl69  1  0.49297382  0.19150294  0.24582091  1
  Cl  Cl70  1  0.50147225  0.28378757  0.50325316  1
  Cl  Cl71  1  0.52246990  0.21072051  0.75387415  1
  Cl  Cl72  1  0.30005749  0.51800630  0.00646485  1
  Cl  Cl73  1  0.19601308  0.49008363  0.25257778  1
  Cl  Cl74  1  0.28562920  0.45102904  0.50385418  1
  Cl  Cl75  1  0.24141635  0.50279402  0.75057407  1
  Cl  Cl76  1  0.99718798  0.81948998  0.00200948  1
  Cl  Cl77  1  0.99125053  0.69596015  0.25102560  1
  Cl  Cl78  1  0.95157274  0.77814263  0.50236511  1
  Cl  Cl79  1  -0.00047508  0.68920842  0.75295968  1
  Cl  Cl80  1  0.74700594  0.45432071  -0.00014885  1
  Cl  Cl81  1  0.73412901  0.54756653  0.25188628  1
  Cl  Cl82  1  0.72342379  0.43238005  0.50206565  1
  Cl  Cl83  1  0.75425853  0.55599194  0.74793676  1
  Cl  Cl84  1  0.45489165  0.77734302  0.00167266  1
  Cl  Cl85  1  0.55189238  0.75196845  0.25300299  1
  Cl  Cl86  1  0.43891724  0.76476812  0.50155805  1
  Cl  Cl87  1  0.55275927  0.75666538  0.75001935  1
  Cl  Cl88  1  0.25892815  0.95264779  0.99933127  1
  Cl  Cl89  1  0.21996185  0.04512347  0.25276381  1
  Cl  Cl90  1  0.25898443  0.93306832  0.50236673  1
  Cl  Cl91  1  0.24781510  0.05017270  0.75008658  1
  Cl  Cl92  1  0.81595693  -0.00023794  0.00325333  1
  Cl  Cl93  1  0.69715270  0.98983473  0.25024464  1
  Cl  Cl94  1  0.78570764  0.96914544  0.50157863  1
  Cl  Cl95  1  0.69161272  0.99865454  0.75364267  1
  Cl  Cl96  1  0.09108371  0.09921331  0.10092346  1
  Cl  Cl97  1  0.14262688  0.14793601  0.40338707  1
  Cl  Cl98  1  0.14742816  0.14746397  0.60434748  1
  Cl  Cl99  1  0.11271780  0.11956337  0.91615876  1
  Cl  Cl100  1  0.60758896  0.09989480  0.10416030  1
  Cl  Cl101  1  0.64794649  0.15232570  0.39914110  1
  Cl  Cl102  1  0.66298448  0.16128313  0.61062383  1
  Cl  Cl103  1  0.63191518  0.12283239  0.91796804  1
  Cl  Cl104  1  0.41397438  0.40682744  0.16023621  1
  Cl  Cl105  1  0.33198548  0.32817250  0.35242333  1
  Cl  Cl106  1  0.34392654  0.33241603  0.65073392  1
  Cl  Cl107  1  0.41777782  0.41114790  0.85297800  1
  Cl  Cl108  1  0.10620056  0.60355966  0.10842886  1
  Cl  Cl109  1  0.13559831  0.63118712  0.41196351  1
  Cl  Cl110  1  0.13600162  0.63348825  0.58795002  1
  Cl  Cl111  1  0.12822601  0.62506683  0.91360651  1
  Cl  Cl112  1  0.90750139  0.41221139  0.15927167  1
  Cl  Cl113  1  0.83738340  0.33802958  0.34498802  1
  Cl  Cl114  1  0.83908560  0.35072891  0.66723578  1
  Cl  Cl115  1  0.91393583  0.42385864  0.85116242  1
  Cl  Cl116  1  0.59515623  0.59367611  0.10734138  1
  Cl  Cl117  1  0.65209758  0.65225064  0.40075691  1
  Cl  Cl118  1  0.65206552  0.65315100  0.60083814  1
  Cl  Cl119  1  0.60330917  0.60416044  0.90277865  1
  Cl  Cl120  1  0.40738043  0.91207166  0.15841718  1
  Cl  Cl121  1  0.33787667  0.84262877  0.34727907  1
  Cl  Cl122  1  0.35667398  0.84803683  0.66674147  1
  Cl  Cl123  1  0.41150585  0.90988060  0.84477556  1
  Cl  Cl124  1  0.91597768  0.91476599  0.16130813  1
  Cl  Cl125  1  0.83068881  0.83213719  0.36072932  1
  Cl  Cl126  1  0.84378321  0.84116567  0.65905072  1
  Cl  Cl127  1  0.91444672  0.91019269  0.84454920  1
  Cl  Cl128  1  0.86095357  0.15797314  0.15925979  1
  Cl  Cl129  1  0.90167415  0.07610354  0.35991955  1
  Cl  Cl130  1  0.89498183  0.08700309  0.65954513  1
  Cl  Cl131  1  0.85856665  0.16627015  0.85782687  1
  Cl  Cl132  1  0.34459621  0.16267389  0.09504620  1
  Cl  Cl133  1  0.39573723  0.08376100  0.39918727  1
  Cl  Cl134  1  0.40468181  0.07551703  0.60548649  1
  Cl  Cl135  1  0.35780119  0.16526611  0.90413710  1
  Cl  Cl136  1  0.15318806  0.36107315  0.09356861  1
  Cl  Cl137  1  0.08952850  0.38682320  0.40921746  1
  Cl  Cl138  1  0.08962908  0.38856608  0.60033131  1
  Cl  Cl139  1  0.15756696  0.36902831  0.91182416  1
  Cl  Cl140  1  0.85079270  0.66833050  0.10019695  1
  Cl  Cl141  1  0.89288334  0.57983278  0.40548680  1
  Cl  Cl142  1  0.90141613  0.57701640  0.60958746  1
  Cl  Cl143  1  0.85206243  0.66981349  0.90508716  1
  Cl  Cl144  1  0.65673842  0.35998299  0.15440044  1
  Cl  Cl145  1  0.58600238  0.39604480  0.34575334  1
  Cl  Cl146  1  0.58305626  0.39679694  0.65004296  1
  Cl  Cl147  1  0.66966650  0.35344522  0.85253005  1
  Cl  Cl148  1  0.35891838  0.66238480  0.15838515  1
  Cl  Cl149  1  0.37784560  0.60688025  0.37582362  1
  Cl  Cl150  1  0.40558169  0.57668049  0.63085667  1
  Cl  Cl151  1  0.35670092  0.67332967  0.85949498  1
  Cl  Cl152  1  0.15972178  0.85641045  0.15144799  1
  Cl  Cl153  1  0.08912351  0.88501547  0.37724977  1
  Cl  Cl154  1  0.09612869  0.88519025  0.65158813  1
  Cl  Cl155  1  0.16569982  0.85636780  0.85870433  1
  Cl  Cl156  1  0.65791439  0.86137744  0.09365866  1
  Cl  Cl157  1  0.59403276  0.89193165  0.40993270  1
  Cl  Cl158  1  0.58862982  0.89901601  0.61052162  1
  Cl  Cl159  1  0.66050248  0.86796617  0.91131849  1
