# generated using pymatgen
data_NaCaF3
_symmetry_space_group_name_H-M   'P 1'
_cell_length_a   12.53674726
_cell_length_b   12.53674726
_cell_length_c   17.72963800
_cell_angle_alpha   90.00000000
_cell_angle_beta   90.00000000
_cell_angle_gamma   90.00000000
_symmetry_Int_Tables_number   1
_chemical_formula_structural   NaCaF3
_chemical_formula_sum   'Na32 Ca32 F96'
_cell_volume   2786.56776836
_cell_formula_units_Z   32
loop_
 _symmetry_equiv_pos_site_id
 _symmetry_equiv_pos_as_xyz
  1  'x, y, z'
loop_
 _atom_site_type_symbol
 _atom_site_label
 _atom_site_symmetry_multiplicity
 _atom_site_fract_x
 _atom_site_fract_y
 _atom_site_fract_z
 _atom_site_occupancy
  Ca  Ca0  1  0.00016544  0.24941243  0.11853262  1
  Ca  Ca1  1  0.99181637  0.26805959  0.36621774  1
  Ca  Ca2  1  0.99774239  0.25478319  0.62015375  1
  Ca  Ca3  1  0.00752201  0.24319951  0.86987602  1
  Ca  Ca4  1  0.50451060  0.25085787  0.12427298  1
  Ca  Ca5  1  0.50228929  0.26339373  0.37901120  1
  Ca  Ca6  1  0.50330722  0.24457336  0.63269964  1
  Ca  Ca7  1  0.49732907  0.24234210  0.87421593  1
  Ca  Ca8  1  0.25292534  0.49589483  0.12057728  1
  Ca  Ca9  1  0.23875829  0.51786142  0.37841683  1
  Ca  Ca10  1  0.23973918  0.49824982  0.63673686  1
  Ca  Ca11  1  0.24906220  0.49993625  0.87144177  1
  Ca  Ca12  1  0.00404539  0.75255874  0.12550169  1
  Ca  Ca13  1  0.99365443  0.75964291  0.38124867  1
  Ca  Ca14  1  0.98574750  0.77306618  0.62953348  1
  Ca  Ca15  1  0.99602264  0.74791249  0.87796174  1
  Ca  Ca16  1  0.76477853  0.49349051  0.12608913  1
  Ca  Ca17  1  0.74811838  0.51152359  0.38020162  1
  Ca  Ca18  1  0.74990155  0.49534298  0.63860646  1
  Ca  Ca19  1  0.75923151  0.48486141  0.87974696  1
  Ca  Ca20  1  0.50654838  0.73952539  0.12039837  1
  Ca  Ca21  1  0.50773271  0.76210303  0.37303178  1
  Ca  Ca22  1  0.49901189  0.75194962  0.63561988  1
  Ca  Ca23  1  0.49837996  0.74169902  0.87851844  1
  Ca  Ca24  1  0.25937959  0.98763763  0.12224593  1
  Ca  Ca25  1  0.25938973  0.99413592  0.37606551  1
  Ca  Ca26  1  0.23928690  0.99955864  0.62441090  1
  Ca  Ca27  1  0.24388948  0.99006908  0.87059742  1
  Ca  Ca28  1  0.76138557  0.99608423  0.12617604  1
  Ca  Ca29  1  0.74188955  0.00237466  0.37167547  1
  Ca  Ca30  1  0.74446269  0.00537650  0.62061087  1
  Ca  Ca31  1  0.74088842  0.98472458  0.87216519  1
  F  F32  1  0.02489272  0.18937521  0.99481693  1
  F  F33  1  0.94385601  0.26179523  0.24219923  1
  F  F34  1  0.05268665  0.24146875  0.49233853  1
  F  F35  1  0.95095394  0.23401359  0.74535292  1
  F  F36  1  0.49964127  0.29463326  0.99880891  1
  F  F37  1  0.46688866  0.26923208  0.25204622  1
  F  F38  1  0.50851622  0.28651760  0.50697440  1
  F  F39  1  0.53172065  0.19065187  0.75310703  1
  F  F40  1  0.30240647  0.51016421  0.99543592  1
  F  F41  1  0.23167321  0.53297340  0.24772300  1
  F  F42  1  0.26817045  0.52455501  0.51003373  1
  F  F43  1  0.18840066  0.54392009  0.75285989  1
  F  F44  1  0.95244563  0.79235924  0.00167778  1
  F  F45  1  0.01423379  0.71044218  0.25393448  1
  F  F46  1  0.93541242  0.75561156  0.50669110  1
  F  F47  1  0.03392317  0.72634698  0.75050708  1
  F  F48  1  0.71293365  0.52126761  0.00411271  1
  F  F49  1  0.80541276  0.51664142  0.25339698  1
  F  F50  1  0.74908064  0.55066314  0.51146314  1
  F  F51  1  0.81905298  0.50097134  0.75834457  1
  F  F52  1  0.51300691  0.67958720  0.00101413  1
  F  F53  1  0.46258925  0.77893574  0.24425480  1
  F  F54  1  0.54760851  0.75913956  0.50589335  1
  F  F55  1  0.50696363  0.80349183  0.75693325  1
  F  F56  1  0.25768815  0.03408899  0.99758421  1
  F  F57  1  0.29656885  0.99570722  0.24952182  1
  F  F58  1  0.21728173  0.04790124  0.49800490  1
  F  F59  1  0.26324496  0.93555851  0.74711950  1
  F  F60  1  0.79147745  0.99779340  0.99838068  1
  F  F61  1  0.78590206  0.05160545  0.24976684  1
  F  F62  1  0.71275960  0.95649159  0.49580456  1
  F  F63  1  0.75184654  0.04843396  0.74757537  1
  F  F64  1  0.12313622  0.11174914  0.13748291  1
  F  F65  1  0.13776792  0.15027756  0.35487463  1
  F  F66  1  0.08815700  0.09701878  0.64671639  1
  F  F67  1  0.15696090  0.14684219  0.83482105  1
  F  F68  1  0.60521217  0.09782809  0.14509901  1
  F  F69  1  0.65071239  0.16012890  0.39152727  1
  F  F70  1  0.57833436  0.07953387  0.60848901  1
  F  F71  1  0.66183639  0.15020180  0.89244311  1
  F  F72  1  0.42412069  0.42194838  0.13088934  1
  F  F73  1  0.34200341  0.36843906  0.40529705  1
  F  F74  1  0.39305125  0.39793127  0.63168399  1
  F  F75  1  0.34925841  0.34603927  0.83410787  1
  F  F76  1  0.10673491  0.60387617  0.08523603  1
  F  F77  1  0.14449305  0.66812052  0.41356454  1
  F  F78  1  0.08495352  0.60849256  0.60513291  1
  F  F79  1  0.14066824  0.64436242  0.91281223  1
  F  F80  1  0.91534326  0.40770360  0.08864747  1
  F  F81  1  0.84123614  0.35521836  0.40540085  1
  F  F82  1  0.91544343  0.42405020  0.60919490  1
  F  F83  1  0.85070218  0.32895084  0.90216972  1
  F  F84  1  0.61245987  0.59788561  0.16350799  1
  F  F85  1  0.65884650  0.66510736  0.34802427  1
  F  F86  1  0.60339375  0.60295591  0.67065516  1
  F  F87  1  0.64515911  0.62970565  0.84397923  1
  F  F88  1  0.42486778  0.90526008  0.09838865  1
  F  F89  1  0.38809575  0.88667018  0.41765342  1
  F  F90  1  0.40792935  0.91033445  0.61289718  1
  F  F91  1  0.34971876  0.84265058  0.91320208  1
  F  F92  1  0.91715895  0.90886860  0.15566018  1
  F  F93  1  0.86319812  0.87271818  0.34513327  1
  F  F94  1  0.90208287  0.92549029  0.65224356  1
  F  F95  1  0.83035282  0.82764942  0.84384313  1
  F  F96  1  0.83728272  0.16492668  0.10407425  1
  F  F97  1  0.89366896  0.11326726  0.39915049  1
  F  F98  1  0.84337720  0.15644438  0.58364601  1
  F  F99  1  0.90335715  0.08411220  0.87360895  1
  F  F100  1  0.34985597  0.15600827  0.12612937  1
  F  F101  1  0.36473428  0.14275930  0.37591388  1
  F  F102  1  0.34722744  0.14098112  0.66120499  1
  F  F103  1  0.40582587  0.08225649  0.87533253  1
  F  F104  1  0.15622790  0.34537522  0.10176533  1
  F  F105  1  0.08750181  0.41986228  0.35514437  1
  F  F106  1  0.14860240  0.34571915  0.65864156  1
  F  F107  1  0.10065715  0.39622077  0.89729348  1
  F  F108  1  0.84147213  0.66102173  0.12030954  1
  F  F109  1  0.91096082  0.59615466  0.39032782  1
  F  F110  1  0.84432353  0.65933827  0.64393110  1
  F  F111  1  0.89763586  0.59792216  0.91627064  1
  F  F112  1  0.65791178  0.34993902  0.16040189  1
  F  F113  1  0.59519621  0.41721122  0.35367567  1
  F  F114  1  0.65413603  0.34442252  0.65801582  1
  F  F115  1  0.61454842  0.38275976  0.84092255  1
  F  F116  1  0.34300064  0.65856722  0.12433101  1
  F  F117  1  0.37755444  0.63439015  0.35979694  1
  F  F118  1  0.33318586  0.66463376  0.63672560  1
  F  F119  1  0.40220561  0.59425561  0.84218100  1
  F  F120  1  0.16353441  0.83743886  0.10574428  1
  F  F121  1  0.09081322  0.91872819  0.37608163  1
  F  F122  1  0.15441294  0.83619053  0.60850634  1
  F  F123  1  0.08601759  0.90470531  0.88846148  1
  F  F124  1  0.65404569  0.84831175  0.15147377  1
  F  F125  1  0.59573404  0.91483137  0.33557376  1
  F  F126  1  0.66732462  0.83611104  0.63756826  1
  F  F127  1  0.59308556  0.89308290  0.91112796  1
  Na  Na128  1  0.97679106  0.98720633  0.97395067  1
  Na  Na129  1  0.95626682  0.98302617  0.26877341  1
  Na  Na130  1  0.04106792  0.05889640  0.46244174  1
  Na  Na131  1  0.94941369  0.05145296  0.74118926  1
  Na  Na132  1  0.44904807  0.96725511  0.97418111  1
  Na  Na133  1  0.52181535  0.95244689  0.21785658  1
  Na  Na134  1  0.51965491  0.94933487  0.51416776  1
  Na  Na135  1  0.46222026  0.01282022  0.72245098  1
  Na  Na136  1  0.21298309  0.19983088  0.03739700  1
  Na  Na137  1  0.30449843  0.17999013  0.25177193  1
  Na  Na138  1  0.23416918  0.22699212  0.44981111  1
  Na  Na139  1  0.24855028  0.24310722  0.74547450  1
  Na  Na140  1  0.02172027  0.50171866  0.99143343  1
  Na  Na141  1  0.98541280  0.53460529  0.28176242  1
  Na  Na142  1  0.94151959  0.56087408  0.51770271  1
  Na  Na143  1  0.99368953  0.54053525  0.71512865  1
  Na  Na144  1  0.79920936  0.18809481  0.97597849  1
  Na  Na145  1  0.76588282  0.22362060  0.21541390  1
  Na  Na146  1  0.77644070  0.21921825  0.47358816  1
  Na  Na147  1  0.71130374  0.23136756  0.77076965  1
  Na  Na148  1  0.48409912  0.49318473  0.01480474  1
  Na  Na149  1  0.53893645  0.45403592  0.23236040  1
  Na  Na150  1  0.42238961  0.43878032  0.50911200  1
  Na  Na151  1  0.53145495  0.51442564  0.77500749  1
  Na  Na152  1  0.23548042  0.71149945  0.01525874  1
  Na  Na153  1  0.30900556  0.69216534  0.24626120  1
  Na  Na154  1  0.21526633  0.70037921  0.52989630  1
  Na  Na155  1  0.21943553  0.74868642  0.72406698  1
  Na  Na156  1  0.79616767  0.69325099  0.99832584  1
  Na  Na157  1  0.73140671  0.70755984  0.23066290  1
  Na  Na158  1  0.73470150  0.74451616  0.53148319  1
  Na  Na159  1  0.72477875  0.72800807  0.74533094  1
