# generated using pymatgen
data_NaCdF3
_symmetry_space_group_name_H-M   'P 1'
_cell_length_a   12.52891534
_cell_length_b   12.52891534
_cell_length_c   17.71856100
_cell_angle_alpha   90.00000000
_cell_angle_beta   90.00000000
_cell_angle_gamma   90.00000000
_symmetry_Int_Tables_number   1
_chemical_formula_structural   NaCdF3
_chemical_formula_sum   'Na32 Cd32 F96'
_cell_volume   2781.34842744
_cell_formula_units_Z   32
loop_
 _symmetry_equiv_pos_site_id
 _symmetry_equiv_pos_as_xyz
  1  'x, y, z'
loop_
 _atom_site_type_symbol
 _atom_site_label
 _atom_site_symmetry_multiplicity
 _atom_site_fract_x
 _atom_site_fract_y
 _atom_site_fract_z
 _atom_site_occupancy
  Cd  Cd0  1  0.98395245  0.99385972  0.99854777  1
  Cd  Cd1  1  0.99774237  0.99532831  0.25682008  1
  Cd  Cd2  1  0.99790690  0.00599834  0.49599388  1
  Cd  Cd3  1  0.00679365  0.99396051  0.74652388  1
  Cd  Cd4  1  0.49272993  0.99341380  0.00872009  1
  Cd  Cd5  1  0.50121771  0.98591399  0.25692985  1
  Cd  Cd6  1  0.49693083  0.00254839  0.49767793  1
  Cd  Cd7  1  0.49400372  0.00512132  0.74738238  1
  Cd  Cd8  1  0.25300351  0.24432291  0.00101541  1
  Cd  Cd9  1  0.26119804  0.24468360  0.24351052  1
  Cd  Cd10  1  0.24433929  0.25892168  0.49412482  1
  Cd  Cd11  1  0.25574560  0.26073763  0.74700261  1
  Cd  Cd12  1  0.01443598  0.48974113  0.00715957  1
  Cd  Cd13  1  0.99870607  0.50505257  0.24993384  1
  Cd  Cd14  1  0.00752281  0.50388785  0.49593159  1
  Cd  Cd15  1  0.99624428  0.50913409  0.75497781  1
  Cd  Cd16  1  0.74104033  0.24511795  0.00559303  1
  Cd  Cd17  1  0.74612216  0.24737288  0.25246880  1
  Cd  Cd18  1  0.73559324  0.24320059  0.49186872  1
  Cd  Cd19  1  0.75731553  0.27479848  0.75880468  1
  Cd  Cd20  1  0.48861142  0.49373866  0.99514032  1
  Cd  Cd21  1  0.49869264  0.50346818  0.24778229  1
  Cd  Cd22  1  0.50402787  0.50724475  0.49124469  1
  Cd  Cd23  1  0.50153251  0.50054155  0.73926672  1
  Cd  Cd24  1  0.24460084  0.74379460  0.00187015  1
  Cd  Cd25  1  0.24180716  0.73930897  0.25277803  1
  Cd  Cd26  1  0.26063892  0.74527304  0.49600737  1
  Cd  Cd27  1  0.25097195  0.75973379  0.76023106  1
  Cd  Cd28  1  0.73364974  0.75565563  0.00263396  1
  Cd  Cd29  1  0.74412621  0.74397139  0.24678714  1
  Cd  Cd30  1  0.76225339  0.74940453  0.49286438  1
  Cd  Cd31  1  0.76036496  0.75933755  0.74571788  1
  F  F32  1  0.12242706  0.11858830  0.01877420  1
  F  F33  1  0.12863383  0.12613849  0.21709435  1
  F  F34  1  0.08503870  0.16694417  0.50446071  1
  F  F35  1  0.13110197  0.12269708  0.73024176  1
  F  F36  1  0.58500815  0.15515500  0.99583804  1
  F  F37  1  0.64023147  0.10830634  0.28700317  1
  F  F38  1  0.58414491  0.15473752  0.46407576  1
  F  F39  1  0.65496015  0.11982540  0.75295218  1
  F  F40  1  0.40520674  0.33469524  0.96811783  1
  F  F41  1  0.41880089  0.33836272  0.26151733  1
  F  F42  1  0.39886503  0.36328146  0.46686248  1
  F  F43  1  0.33302059  0.42631380  0.74468324  1
  F  F44  1  0.08962180  0.65029114  0.98080995  1
  F  F45  1  0.08896827  0.65197743  0.28846513  1
  F  F46  1  0.09251264  0.66608499  0.48535625  1
  F  F47  1  0.16148681  0.59766929  0.77324733  1
  F  F48  1  0.87464278  0.37831382  0.02949558  1
  F  F49  1  0.88156571  0.37057930  0.21344168  1
  F  F50  1  0.89837483  0.35244704  0.51664761  1
  F  F51  1  0.84784295  0.41792872  0.71494389  1
  F  F52  1  0.58905167  0.64978300  0.98907483  1
  F  F53  1  0.58396547  0.65256374  0.20927322  1
  F  F54  1  0.59241802  0.67129962  0.49955164  1
  F  F55  1  0.62398612  0.63585987  0.73891047  1
  F  F56  1  0.39754998  0.84347356  0.03005447  1
  F  F57  1  0.38859915  0.84320271  0.23019317  1
  F  F58  1  0.37982434  0.86986960  0.53547880  1
  F  F59  1  0.34740882  0.90735125  0.72689984  1
  F  F60  1  0.90134118  0.83558721  0.97907238  1
  F  F61  1  0.86474397  0.88335564  0.28775510  1
  F  F62  1  0.91104982  0.84602160  0.47756524  1
  F  F63  1  0.84412509  0.92274462  0.75552779  1
  F  F64  1  0.83336457  0.09014060  0.99172207  1
  F  F65  1  0.90669389  0.15428092  0.27696896  1
  F  F66  1  0.85219725  0.11044956  0.45385575  1
  F  F67  1  0.90009580  0.16347118  0.75464205  1
  F  F68  1  0.34923375  0.08979794  0.97136106  1
  F  F69  1  0.36930678  0.10396457  0.28659631  1
  F  F70  1  0.34500319  0.11197710  0.46717823  1
  F  F71  1  0.41447429  0.17365723  0.75941223  1
  F  F72  1  0.16133146  0.39522022  0.02701233  1
  F  F73  1  0.13274820  0.37686886  0.21787718  1
  F  F74  1  0.16403244  0.42302473  0.48916520  1
  F  F75  1  0.08802673  0.35221397  0.75058678  1
  F  F76  1  0.84970840  0.61225093  0.00724511  1
  F  F77  1  0.85068531  0.60814388  0.20882180  1
  F  F78  1  0.84323583  0.58217196  0.50596084  1
  F  F79  1  0.90927099  0.66829966  0.77531026  1
  F  F80  1  0.65043669  0.40881216  0.02328966  1
  F  F81  1  0.63405078  0.38117116  0.20675291  1
  F  F82  1  0.66077721  0.41242024  0.51151497  1
  F  F83  1  0.60413335  0.35740814  0.72228540  1
  F  F84  1  0.33908443  0.59557757  0.96661750  1
  F  F85  1  0.33404251  0.57859751  0.27434109  1
  F  F86  1  0.35406603  0.60371665  0.46143243  1
  F  F87  1  0.39430415  0.65401868  0.77997442  1
  F  F88  1  0.14361127  0.89580909  0.02092921  1
  F  F89  1  0.13383287  0.88221408  0.22217904  1
  F  F90  1  0.13424357  0.88609845  0.53418744  1
  F  F91  1  0.11069226  0.85754564  0.70937295  1
  F  F92  1  0.65623188  0.91692072  0.99409576  1
  F  F93  1  0.63249552  0.86948952  0.28990156  1
  F  F94  1  0.65243104  0.89773991  0.46723987  1
  F  F95  1  0.61416666  0.87355376  0.75347294  1
  F  F96  1  0.97035176  0.00320098  0.12780757  1
  F  F97  1  0.06318828  0.97836911  0.37695271  1
  F  F98  1  0.95800703  0.03766758  0.62137567  1
  F  F99  1  0.04065909  0.02367952  0.87251486  1
  F  F100  1  0.54519093  0.99727543  0.13303196  1
  F  F101  1  0.45801716  0.93882784  0.38181095  1
  F  F102  1  0.51037554  0.04717672  0.62132361  1
  F  F103  1  0.51598825  0.01021307  0.87412723  1
  F  F104  1  0.31799255  0.24076269  0.12212856  1
  F  F105  1  0.24316903  0.28528191  0.36598076  1
  F  F106  1  0.22955094  0.26897314  0.62089843  1
  F  F107  1  0.21412012  0.23912235  0.87154960  1
  F  F108  1  0.03937368  0.55022736  0.12670926  1
  F  F109  1  0.97265050  0.45458872  0.37135938  1
  F  F110  1  0.03794285  0.54746953  0.62843692  1
  F  F111  1  0.95640184  0.49909969  0.88433995  1
  F  F112  1  0.74431055  0.19439032  0.12919587  1
  F  F113  1  0.76522816  0.31057396  0.37291931  1
  F  F114  1  0.73125016  0.21628541  0.61742653  1
  F  F115  1  0.75693776  0.30657071  0.88359042  1
  F  F116  1  0.43756478  0.47956337  0.11895445  1
  F  F117  1  0.55995411  0.50674487  0.36771120  1
  F  F118  1  0.47976341  0.54226206  0.61704574  1
  F  F119  1  0.51078740  0.50594929  0.86649895  1
  F  F120  1  0.26897798  0.68615695  0.12637973  1
  F  F121  1  0.23322469  0.80462147  0.37688585  1
  F  F122  1  0.24082163  0.70895602  0.62655231  1
  F  F123  1  0.23809870  0.81494953  0.88040313  1
  F  F124  1  0.77487496  0.79398686  0.12395427  1
  F  F125  1  0.73657938  0.68947061  0.37059668  1
  F  F126  1  0.74134538  0.75622357  0.61976825  1
  F  F127  1  0.72000106  0.76189768  0.87298728  1
  Na  Na128  1  0.00291123  0.24590154  0.18474493  1
  Na  Na129  1  0.94444090  0.26566994  0.39888844  1
  Na  Na130  1  0.04802432  0.20981854  0.63022368  1
  Na  Na131  1  0.04253070  0.21017810  0.83130406  1
  Na  Na132  1  0.48796270  0.30440959  0.13750285  1
  Na  Na133  1  0.44558200  0.22726326  0.38019843  1
  Na  Na134  1  0.55538359  0.21148731  0.65997170  1
  Na  Na135  1  0.46886463  0.19083338  0.89656358  1
  Na  Na136  1  0.23419359  0.50021071  0.12946751  1
  Na  Na137  1  0.28016600  0.47119119  0.38752969  1
  Na  Na138  1  0.22349743  0.52669278  0.65684834  1
  Na  Na139  1  0.30123926  0.53189164  0.85124222  1
  Na  Na140  1  0.93736810  0.70134178  0.10812594  1
  Na  Na141  1  0.04529260  0.78552264  0.38796052  1
  Na  Na142  1  0.06146625  0.73994064  0.60515611  1
  Na  Na143  1  0.95392789  0.69537810  0.90243400  1
  Na  Na144  1  0.76728513  0.45700569  0.13227483  1
  Na  Na145  1  0.74032296  0.49873754  0.40215933  1
  Na  Na146  1  0.79216682  0.45217557  0.59559702  1
  Na  Na147  1  0.78155262  0.47059671  0.93603003  1
  Na  Na148  1  0.45137839  0.74444129  0.13447260  1
  Na  Na149  1  0.55824203  0.77966919  0.38995719  1
  Na  Na150  1  0.56436826  0.70430659  0.62410729  1
  Na  Na151  1  0.54829416  0.68641088  0.85774363  1
  Na  Na152  1  0.16024217  0.00117346  0.12434716  1
  Na  Na153  1  0.27757632  0.98639098  0.37333521  1
  Na  Na154  1  0.25505617  0.92623797  0.62190983  1
  Na  Na155  1  0.21314569  0.99074121  0.92138291  1
  Na  Na156  1  0.72891935  0.01552647  0.09581659  1
  Na  Na157  1  0.74109901  0.98768615  0.36352323  1
  Na  Na158  1  0.78645282  0.05731169  0.67263964  1
  Na  Na159  1  0.68955629  0.95173754  0.86471416  1
