# generated using pymatgen
data_NaCdCl3
_symmetry_space_group_name_H-M   'P 1'
_cell_length_a   14.77716984
_cell_length_b   14.77716984
_cell_length_c   20.89807500
_cell_angle_alpha   90.00000000
_cell_angle_beta   90.00000000
_cell_angle_gamma   90.00000000
_symmetry_Int_Tables_number   1
_chemical_formula_structural   NaCdCl3
_chemical_formula_sum   'Na32 Cd32 Cl96'
_cell_volume   4563.40289056
_cell_formula_units_Z   32
loop_
 _symmetry_equiv_pos_site_id
 _symmetry_equiv_pos_as_xyz
  1  'x, y, z'
loop_
 _atom_site_type_symbol
 _atom_site_label
 _atom_site_symmetry_multiplicity
 _atom_site_fract_x
 _atom_site_fract_y
 _atom_site_fract_z
 _atom_site_occupancy
  Cd  Cd0  1  0.01684485  0.00847130  0.00559217  1
  Cd  Cd1  1  0.99975303  0.96789873  0.23213128  1
  Cd  Cd2  1  0.01593494  0.00614620  0.51714508  1
  Cd  Cd3  1  0.99602599  0.98646002  0.74488022  1
  Cd  Cd4  1  0.52309640  0.03476605  0.97662430  1
  Cd  Cd5  1  0.51170915  0.98612489  0.28374884  1
  Cd  Cd6  1  0.48348118  0.97967648  0.50769870  1
  Cd  Cd7  1  0.49348097  -0.00499937  0.74905109  1
  Cd  Cd8  1  0.25539133  0.25676765  0.98918127  1
  Cd  Cd9  1  0.29038297  0.29434202  0.21967619  1
  Cd  Cd10  1  0.26856303  0.22321650  0.51584670  1
  Cd  Cd11  1  0.24130301  0.21848538  0.74284072  1
  Cd  Cd12  1  0.00120992  0.47453571  0.98691461  1
  Cd  Cd13  1  0.93443262  0.56100776  0.27807522  1
  Cd  Cd14  1  0.97841232  0.48410440  0.50916789  1
  Cd  Cd15  1  0.00317639  0.44924888  0.72217705  1
  Cd  Cd16  1  0.76704385  0.26152360  0.99288453  1
  Cd  Cd17  1  0.78633265  0.28084110  0.21366326  1
  Cd  Cd18  1  0.66412403  0.22027741  0.50391199  1
  Cd  Cd19  1  0.75913580  0.22888483  0.76066689  1
  Cd  Cd20  1  0.50278498  0.49968714  0.99552155  1
  Cd  Cd21  1  0.48312481  0.52898004  0.21897530  1
  Cd  Cd22  1  0.46056475  0.48485117  0.49622612  1
  Cd  Cd23  1  0.50500933  0.52140807  0.75908442  1
  Cd  Cd24  1  0.24212726  0.75923589  0.99877097  1
  Cd  Cd25  1  0.20955123  0.71978976  0.23858254  1
  Cd  Cd26  1  0.27092654  0.72878570  0.51401577  1
  Cd  Cd27  1  0.25876439  0.75639760  0.75621088  1
  Cd  Cd28  1  0.74354145  0.77110560  0.97822281  1
  Cd  Cd29  1  0.74474275  0.79090717  0.25773871  1
  Cd  Cd30  1  0.72434363  0.75712335  0.47055037  1
  Cd  Cd31  1  0.73267289  0.79912132  0.76702466  1
  Cl  Cl32  1  0.17647420  0.09643219  0.02688840  1
  Cl  Cl33  1  0.11708727  0.07386880  0.26589847  1
  Cl  Cl34  1  0.14716248  0.10930547  0.56189432  1
  Cl  Cl35  1  0.15304019  0.06685530  0.73114746  1
  Cl  Cl36  1  0.65552607  0.13210837  0.93679035  1
  Cl  Cl37  1  0.61795189  0.11283507  0.28470524  1
  Cl  Cl38  1  0.64245415  0.05579515  0.46899322  1
  Cl  Cl39  1  0.66925475  0.08114146  0.77217596  1
  Cl  Cl40  1  0.34152791  0.40824074  0.95894264  1
  Cl  Cl41  1  0.40529464  0.39472132  0.27840867  1
  Cl  Cl42  1  0.31619831  0.39155714  0.47765900  1
  Cl  Cl43  1  0.36773188  0.42652136  0.76586495  1
  Cl  Cl44  1  0.15816220  0.61575007  0.95430770  1
  Cl  Cl45  1  0.10718921  0.57902046  0.27659947  1
  Cl  Cl46  1  0.14747956  0.65090586  0.45302017  1
  Cl  Cl47  1  0.18113688  0.60264391  0.77617015  1
  Cl  Cl48  1  0.83851494  0.41622546  0.02733666  1
  Cl  Cl49  1  0.88763253  0.42422296  0.19959008  1
  Cl  Cl50  1  0.83449691  0.39102666  0.53598387  1
  Cl  Cl51  1  0.86533496  0.34305703  0.69693192  1
  Cl  Cl52  1  0.64323303  0.59855195  0.01783681  1
  Cl  Cl53  1  0.63428927  0.59509340  0.21849626  1
  Cl  Cl54  1  0.68139981  0.60692875  0.51713196  1
  Cl  Cl55  1  0.64491804  0.57507368  0.70830413  1
  Cl  Cl56  1  0.35360764  0.88780788  0.03103760  1
  Cl  Cl57  1  0.41047433  0.91832258  0.20229217  1
  Cl  Cl58  1  0.32387673  0.89242336  0.52713286  1
  Cl  Cl59  1  0.34440163  0.89516554  0.71434482  1
  Cl  Cl60  1  0.82619294  0.92445592  0.98328247  1
  Cl  Cl61  1  0.84353691  0.94078759  0.27876356  1
  Cl  Cl62  1  0.83218906  0.87972476  0.49705771  1
  Cl  Cl63  1  0.86641029  0.89673069  0.80272114  1
  Cl  Cl64  1  0.90603334  0.15501472  0.96799085  1
  Cl  Cl65  1  0.88725645  0.19114432  0.28144119  1
  Cl  Cl66  1  0.92134772  0.13687226  0.46792975  1
  Cl  Cl67  1  0.90971068  0.13927786  0.78723841  1
  Cl  Cl68  1  0.40404837  0.16805309  0.01838612  1
  Cl  Cl69  1  0.39132316  0.16566043  0.19893160  1
  Cl  Cl70  1  0.42532161  0.14554839  0.53296200  1
  Cl  Cl71  1  0.41154961  0.14875439  0.73946256  1
  Cl  Cl72  1  0.09237300  0.32915860  0.96660546  1
  Cl  Cl73  1  0.14872112  0.33379900  0.27763370  1
  Cl  Cl74  1  0.07587775  0.37300056  0.45274630  1
  Cl  Cl75  1  0.10448074  0.33693059  0.77753276  1
  Cl  Cl76  1  0.86237498  0.67249093  0.02808204  1
  Cl  Cl77  1  0.86756024  0.67227670  0.20269019  1
  Cl  Cl78  1  0.93222761  0.64077931  0.53487220  1
  Cl  Cl79  1  0.93794485  0.60332416  0.72796138  1
  Cl  Cl80  1  0.59692254  0.34020432  0.01072410  1
  Cl  Cl81  1  0.63018196  0.34097232  0.21172103  1
  Cl  Cl82  1  0.57456922  0.34641833  0.55646317  1
  Cl  Cl83  1  0.61457676  0.32123532  0.73523399  1
  Cl  Cl84  1  0.39611471  0.64437962  0.97171631  1
  Cl  Cl85  1  0.37062525  0.64086315  0.26562187  1
  Cl  Cl86  1  0.39810621  0.64926358  0.45389391  1
  Cl  Cl87  1  0.41577149  0.66984958  0.78980685  1
  Cl  Cl88  1  0.08660018  0.84429928  0.01913186  1
  Cl  Cl89  1  0.06335182  0.81258908  0.20539017  1
  Cl  Cl90  1  0.08253952  0.85715145  0.56792615  1
  Cl  Cl91  1  0.08480868  0.82679388  0.74326747  1
  Cl  Cl92  1  0.58755621  0.84715205  0.97948315  1
  Cl  Cl93  1  0.59465421  0.83762408  0.31620982  1
  Cl  Cl94  1  0.56668364  0.82082715  0.50362628  1
  Cl  Cl95  1  0.57432687  0.85593170  0.79514669  1
  Cl  Cl96  1  0.94823549  0.02097725  0.11858401  1
  Cl  Cl97  1  0.05011795  0.93913083  0.40765572  1
  Cl  Cl98  1  0.92796505  0.02640892  0.63184294  1
  Cl  Cl99  1  0.05679373  0.00919108  0.88627431  1
  Cl  Cl100  1  0.56760331  0.03352689  0.09227832  1
  Cl  Cl101  1  0.41736177  0.97983818  0.38713881  1
  Cl  Cl102  1  0.55014819  -0.00341800  0.62963846  1
  Cl  Cl103  1  0.43279745  -0.00067393  0.87941295  1
  Cl  Cl104  1  0.22449242  0.33343095  0.10882519  1
  Cl  Cl105  1  0.22887056  0.17517026  0.40389289  1
  Cl  Cl106  1  0.26949279  0.29461476  0.63568068  1
  Cl  Cl107  1  0.24298332  0.19190517  0.86773889  1
  Cl  Cl108  1  0.05609985  0.52596212  0.09341235  1
  Cl  Cl109  1  0.89353336  0.49233893  0.38001718  1
  Cl  Cl110  1  0.08620048  0.47223520  0.61578335  1
  Cl  Cl111  1  0.94163166  0.52340571  0.88332447  1
  Cl  Cl112  1  0.75548317  0.19112773  0.10865151  1
  Cl  Cl113  1  0.71442952  0.27647054  0.39806089  1
  Cl  Cl114  1  0.73067324  0.17211648  0.61058886  1
  Cl  Cl115  1  0.76868479  0.32156027  0.87199415  1
  Cl  Cl116  1  0.42913513  0.47849438  0.10915898  1
  Cl  Cl117  1  0.55373006  0.46358147  0.39845578  1
  Cl  Cl118  1  0.44658098  0.54501842  0.60822470  1
  Cl  Cl119  1  0.56548738  0.48404342  0.87545468  1
  Cl  Cl120  1  0.23803048  0.68684620  0.11899295  1
  Cl  Cl121  1  0.24758155  0.81790567  0.33133242  1
  Cl  Cl122  1  0.23990409  0.68476312  0.62971199  1
  Cl  Cl123  1  0.26100615  0.82001014  0.87757730  1
  Cl  Cl124  1  0.69698111  0.83192016  0.14555370  1
  Cl  Cl125  1  0.79232797  0.71219859  0.36195683  1
  Cl  Cl126  1  0.73014443  0.79777208  0.65034153  1
  Cl  Cl127  1  0.74611064  0.69676817  0.86437146  1
  Na  Na128  1  0.06134675  0.37524207  0.16756760  1
  Na  Na129  1  0.05152585  0.21460397  0.36769369  1
  Na  Na130  1  0.90524417  0.22469225  0.58407163  1
  Na  Na131  1  0.04031798  0.20386784  0.87324130  1
  Na  Na132  1  0.54557215  0.22557054  0.11600930  1
  Na  Na133  1  0.55662217  0.29700371  0.32660728  1
  Na  Na134  1  0.52901212  0.20325537  0.64656596  1
  Na  Na135  1  0.58138395  0.29780769  0.87491391  1
  Na  Na136  1  0.25371495  0.51860128  0.05492352  1
  Na  Na137  1  0.19359678  0.48481733  0.39004537  1
  Na  Na138  1  0.27115095  0.49348168  0.65947642  1
  Na  Na139  1  0.30072830  0.54725063  0.86914107  1
  Na  Na140  1  0.01349765  0.71547114  0.09819815  1
  Na  Na141  1  0.00330053  0.77702670  0.46122890  1
  Na  Na142  1  0.04407754  0.69399882  0.63761891  1
  Na  Na143  1  0.03286987  0.67256677  0.83472364  1
  Na  Na144  1  0.75959856  0.56295501  0.11734669  1
  Na  Na145  1  0.72911660  0.46484006  0.43714328  1
  Na  Na146  1  0.71074872  0.42803462  0.63898261  1
  Na  Na147  1  0.75503536  0.51474967  0.91931571  1
  Na  Na148  1  0.51598295  0.84987262  0.10511809  1
  Na  Na149  1  0.42416494  0.77113152  0.35411520  1
  Na  Na150  1  0.58114877  0.68856846  0.61022957  1
  Na  Na151  1  0.45212013  0.79209717  0.89288588  1
  Na  Na152  1  0.32783167  0.03956074  0.10948391  1
  Na  Na153  1  0.21829420  0.99597798  0.36607805  1
  Na  Na154  1  0.21697738  0.95914793  0.62781243  1
  Na  Na155  1  0.24305388  0.00698178  0.90517989  1
  Na  Na156  1  0.76116443  0.99671051  0.09801196  1
  Na  Na157  1  0.77904464  0.09212438  0.36560709  1
  Na  Na158  1  0.74019925  0.97490142  0.59629375  1
  Na  Na159  1  0.80548819  0.04164070  0.87877637  1
