# generated using pymatgen
data_NaGeCl3
_symmetry_space_group_name_H-M   'P 1'
_cell_length_a   14.75290476
_cell_length_b   14.75290476
_cell_length_c   20.86375800
_cell_angle_alpha   90.00000000
_cell_angle_beta   90.00000000
_cell_angle_gamma   90.00000000
_symmetry_Int_Tables_number   1
_chemical_formula_structural   NaGeCl3
_chemical_formula_sum   'Na32 Ge32 Cl96'
_cell_volume   4540.95935185
_cell_formula_units_Z   32
loop_
 _symmetry_equiv_pos_site_id
 _symmetry_equiv_pos_as_xyz
  1  'x, y, z'
loop_
 _atom_site_type_symbol
 _atom_site_label
 _atom_site_symmetry_multiplicity
 _atom_site_fract_x
 _atom_site_fract_y
 _atom_site_fract_z
 _atom_site_occupancy
  Na  Na0  1  0.02916075  0.98607985  0.99077037  1
  Na  Na1  1  0.98184269  0.06115761  0.28173892  1
  Na  Na2  1  0.98829974  0.97542646  0.49412684  1
  Na  Na3  1  0.02058848  0.95223841  0.69329459  1
  Na  Na4  1  0.57321324  0.01679069  0.96187734  1
  Na  Na5  1  0.45316427  0.95839923  0.25257228  1
  Na  Na6  1  0.46618924  0.99527021  0.47799826  1
  Na  Na7  1  0.53486092  0.00668288  0.73799752  1
  Na  Na8  1  0.21094794  0.24957472  0.99358353  1
  Na  Na9  1  0.24929101  0.19570784  0.25905778  1
  Na  Na10  1  0.22327144  0.16458905  0.50663026  1
  Na  Na11  1  0.28697371  0.28158901  0.75022509  1
  Na  Na12  1  0.01105846  0.48451595  0.02192440  1
  Na  Na13  1  0.96812301  0.51115471  0.26705211  1
  Na  Na14  1  0.00943008  0.47051668  0.51084204  1
  Na  Na15  1  0.03237290  0.48789461  0.74772315  1
  Na  Na16  1  0.70995906  0.29508958  0.00498869  1
  Na  Na17  1  0.74168522  0.20156957  0.24556092  1
  Na  Na18  1  0.73767082  0.22505883  0.45873146  1
  Na  Na19  1  0.79412785  0.26923024  0.75729194  1
  Na  Na20  1  0.46550599  0.48537863  0.00558146  1
  Na  Na21  1  0.45351833  0.49303842  0.25491627  1
  Na  Na22  1  0.50058431  0.49101274  0.51321633  1
  Na  Na23  1  0.51376772  0.52765432  0.75933147  1
  Na  Na24  1  0.22760072  0.72084391  0.01998734  1
  Na  Na25  1  0.26017976  0.69698203  0.26671558  1
  Na  Na26  1  0.21512864  0.75268512  0.51714119  1
  Na  Na27  1  0.23696452  0.79284126  0.77723003  1
  Na  Na28  1  0.78312402  0.75279229  0.01945633  1
  Na  Na29  1  0.70045250  0.70336904  0.22977254  1
  Na  Na30  1  0.75338159  0.72063340  0.46759525  1
  Na  Na31  1  0.76224047  0.75277113  0.74419370  1
  Ge  Ge32  1  0.02764185  0.28469503  0.13409598  1
  Ge  Ge33  1  0.05655450  0.27567458  0.38974693  1
  Ge  Ge34  1  0.98725061  0.19834418  0.60460160  1
  Ge  Ge35  1  0.01628300  0.29703433  0.87240198  1
  Ge  Ge36  1  0.48449311  0.23892795  0.08346810  1
  Ge  Ge37  1  0.50263419  0.21022553  0.33544543  1
  Ge  Ge38  1  0.45417158  0.20278494  0.59940165  1
  Ge  Ge39  1  0.52759794  0.26474760  0.81480778  1
  Ge  Ge40  1  0.24928504  0.49876766  0.12608438  1
  Ge  Ge41  1  0.27136601  0.50788107  0.39406291  1
  Ge  Ge42  1  0.28033020  0.53171491  0.62908255  1
  Ge  Ge43  1  0.29530937  0.56596075  0.87727945  1
  Ge  Ge44  1  0.99395927  0.73567153  0.12266206  1
  Ge  Ge45  1  0.97594444  0.76209933  0.36450563  1
  Ge  Ge46  1  0.93172856  0.66025034  0.61765074  1
  Ge  Ge47  1  0.97158206  0.70552314  0.84202113  1
  Ge  Ge48  1  0.75433217  0.46900268  0.15466848  1
  Ge  Ge49  1  0.73161580  0.48195869  0.36351643  1
  Ge  Ge50  1  0.74170756  0.41978835  0.57303568  1
  Ge  Ge51  1  0.76291079  0.47224836  0.87535985  1
  Ge  Ge52  1  0.53439236  0.78621293  0.09849039  1
  Ge  Ge53  1  0.50551442  0.72226211  0.37654168  1
  Ge  Ge54  1  0.50837446  0.73515779  0.61583679  1
  Ge  Ge55  1  0.57659192  0.75977196  0.88070159  1
  Ge  Ge56  1  0.24148943  0.98137290  0.14406033  1
  Ge  Ge57  1  0.22665402  0.95920198  0.37929422  1
  Ge  Ge58  1  0.26685182  0.96574499  0.66373404  1
  Ge  Ge59  1  0.29673025  0.98287140  0.90769118  1
  Ge  Ge60  1  0.80550380  0.03698995  0.10281118  1
  Ge  Ge61  1  0.73084393  0.99087081  0.36708056  1
  Ge  Ge62  1  0.78167170  0.00552082  0.62214611  1
  Ge  Ge63  1  0.83328006  0.99019355  0.87410026  1
  Cl  Cl64  1  0.03760733  0.30025298  0.01723231  1
  Cl  Cl65  1  0.04165399  0.24191489  0.27626735  1
  Cl  Cl66  1  0.08396744  0.29336924  0.53762220  1
  Cl  Cl67  1  0.98238204  0.30632954  0.75879847  1
  Cl  Cl68  1  0.54514973  0.19742647  0.97989070  1
  Cl  Cl69  1  0.43319100  0.29531138  0.25083018  1
  Cl  Cl70  1  0.41138983  0.18261401  0.49084020  1
  Cl  Cl71  1  0.46420814  0.34758036  0.72557198  1
  Cl  Cl72  1  0.20450765  0.51676783  0.01415410  1
  Cl  Cl73  1  0.26510885  0.50354798  0.27906685  1
  Cl  Cl74  1  0.15830032  0.57825076  0.55944792  1
  Cl  Cl75  1  0.35278256  0.63825963  0.78267987  1
  Cl  Cl76  1  0.95591244  0.66237328  0.02208636  1
  Cl  Cl77  1  0.98368115  0.87484090  0.28686336  1
  Cl  Cl78  1  0.92751892  0.64722196  0.50389304  1
  Cl  Cl79  1  0.93296869  0.83322350  0.77705910  1
  Cl  Cl80  1  0.83423193  0.42140789  0.06002333  1
  Cl  Cl81  1  0.63649590  0.53386323  0.27558582  1
  Cl  Cl82  1  0.83683730  0.38444122  0.48248137  1
  Cl  Cl83  1  0.68665418  0.44071365  0.77693918  1
  Cl  Cl84  1  0.62854287  0.86292050  0.02194765  1
  Cl  Cl85  1  0.45699013  0.69021898  0.26918003  1
  Cl  Cl86  1  0.59153417  0.78706593  0.52564147  1
  Cl  Cl87  1  0.58441692  0.70559334  0.77288477  1
  Cl  Cl88  1  0.39828452  0.94236194  0.98941813  1
  Cl  Cl89  1  0.15688526  0.02925731  0.23554316  1
  Cl  Cl90  1  0.27913856  0.95806013  0.48976402  1
  Cl  Cl91  1  0.17842810  0.99545391  0.75671105  1
  Cl  Cl92  1  0.75221245  0.07940683  0.95063324  1
  Cl  Cl93  1  0.81896492  0.03323637  0.21717496  1
  Cl  Cl94  1  0.64293346  0.05830123  0.45184525  1
  Cl  Cl95  1  0.87156080  0.07596553  0.70390738  1
  Cl  Cl96  1  0.18351612  0.24535503  0.13531845  1
  Cl  Cl97  1  0.10681982  0.06565064  0.40592567  1
  Cl  Cl98  1  0.09031840  0.06786433  0.59367449  1
  Cl  Cl99  1  0.18119735  0.28456654  0.86167225  1
  Cl  Cl100  1  0.73556087  0.18558334  0.11209705  1
  Cl  Cl101  1  0.57581912  0.10080164  0.26804396  1
  Cl  Cl102  1  0.49420094  0.04376085  0.60945908  1
  Cl  Cl103  1  0.63117265  0.17254203  0.75528544  1
  Cl  Cl104  1  0.36671006  0.32640314  0.03463512  1
  Cl  Cl105  1  0.43013269  0.47818030  0.39156762  1
  Cl  Cl106  1  0.33841308  0.42242857  0.55827889  1
  Cl  Cl107  1  0.40665439  0.45174300  0.87507421  1
  Cl  Cl108  1  0.20079149  0.65123722  0.14394603  1
  Cl  Cl109  1  0.07452754  0.66515704  0.30508744  1
  Cl  Cl110  1  0.93619891  0.49736863  0.63106559  1
  Cl  Cl111  1  0.10452345  0.66318108  0.78390504  1
  Cl  Cl112  1  0.83256497  0.37326278  0.23071349  1
  Cl  Cl113  1  0.03924326  0.43729497  0.38073584  1
  Cl  Cl114  1  0.78889021  0.28837310  0.62869026  1
  Cl  Cl115  1  0.79995418  0.31283107  0.88787550  1
  Cl  Cl116  1  0.63985666  0.66429840  0.10196357  1
  Cl  Cl117  1  0.65400892  0.56217278  0.44872140  1
  Cl  Cl118  1  0.54983338  0.57662991  0.62623719  1
  Cl  Cl119  1  0.73248617  0.72238572  0.89238995  1
  Cl  Cl120  1  0.31304851  0.85826047  0.19937069  1
  Cl  Cl121  1  0.44790955  0.87479142  0.37323472  1
  Cl  Cl122  1  0.38106496  0.88925562  0.72710088  1
  Cl  Cl123  1  0.21232758  0.84232426  0.90798481  1
  Cl  Cl124  1  0.86370549  0.82827485  0.12410821  1
  Cl  Cl125  1  0.82680885  0.90481001  0.43731103  1
  Cl  Cl126  1  0.89797365  0.89511708  0.60160520  1
  Cl  Cl127  1  0.88829352  0.88496339  0.95211636  1
  Cl  Cl128  1  0.95729725  0.08625498  0.08938243  1
  Cl  Cl129  1  0.83074211  0.12291555  0.36342631  1
  Cl  Cl130  1  0.89777810  0.13697790  0.52060093  1
  Cl  Cl131  1  0.96909269  0.07448983  0.87838029  1
  Cl  Cl132  1  0.36511902  0.07906833  0.16661721  1
  Cl  Cl133  1  0.33570796  0.07297426  0.34730714  1
  Cl  Cl134  1  0.30055815  0.18445416  0.63620614  1
  Cl  Cl135  1  0.41338060  0.15114224  0.80889055  1
  Cl  Cl136  1  0.05298151  0.44669778  0.15300590  1
  Cl  Cl137  1  0.21673783  0.28343534  0.38608415  1
  Cl  Cl138  1  0.19381596  0.42652263  0.69416456  1
  Cl  Cl139  1  0.01821788  0.46066120  0.88377565  1
  Cl  Cl140  1  0.85004060  0.59658496  0.17853788  1
  Cl  Cl141  1  0.83697116  0.60164459  0.34814932  1
  Cl  Cl142  1  0.77418114  0.67330644  0.62311563  1
  Cl  Cl143  1  0.88166136  0.60911794  0.77681021  1
  Cl  Cl144  1  0.57686565  0.36877105  0.09335096  1
  Cl  Cl145  1  0.64207648  0.29302245  0.34305221  1
  Cl  Cl146  1  0.61450729  0.33796078  0.52751267  1
  Cl  Cl147  1  0.63339916  0.46138347  0.94124370  1
  Cl  Cl148  1  0.40707211  0.54848864  0.12298516  1
  Cl  Cl149  1  0.28607440  0.67172016  0.39820838  1
  Cl  Cl150  1  0.38397748  0.69310072  0.55064964  1
  Cl  Cl151  1  0.38195109  0.65537482  0.95224737  1
  Cl  Cl152  1  0.09438289  0.84199465  0.06819002  1
  Cl  Cl153  1  0.08543996  0.82995694  0.44133480  1
  Cl  Cl154  1  0.17817950  0.82852763  0.64490804  1
  Cl  Cl155  1  0.19810230  0.06349875  0.97915396  1
  Cl  Cl156  1  0.59797658  0.86529901  0.18536162  1
  Cl  Cl157  1  0.65626564  0.77554005  0.34870132  1
  Cl  Cl158  1  0.69544055  0.91450415  0.69405963  1
  Cl  Cl159  1  0.59218973  0.91682313  0.85083290  1
