# generated using pymatgen
data_NaHgCl3
_symmetry_space_group_name_H-M   'P 1'
_cell_length_a   15.01009788
_cell_length_b   15.01009788
_cell_length_c   21.22748500
_cell_angle_alpha   90.00000000
_cell_angle_beta   90.00000000
_cell_angle_gamma   90.00000000
_symmetry_Int_Tables_number   1
_chemical_formula_structural   NaHgCl3
_chemical_formula_sum   'Na32 Hg32 Cl96'
_cell_volume   4782.61686990
_cell_formula_units_Z   32
loop_
 _symmetry_equiv_pos_site_id
 _symmetry_equiv_pos_as_xyz
  1  'x, y, z'
loop_
 _atom_site_type_symbol
 _atom_site_label
 _atom_site_symmetry_multiplicity
 _atom_site_fract_x
 _atom_site_fract_y
 _atom_site_fract_z
 _atom_site_occupancy
  Cl  Cl0  1  0.09929870  0.19759357  0.97391834  1
  Cl  Cl1  1  0.03838779  0.34008280  0.24921132  1
  Cl  Cl2  1  0.03130235  0.24597059  0.46930366  1
  Cl  Cl3  1  0.89394853  0.16105413  0.74404034  1
  Cl  Cl4  1  0.52396945  0.20313521  0.98252779  1
  Cl  Cl5  1  0.55089942  0.35191045  0.26405616  1
  Cl  Cl6  1  0.47666036  0.12961206  0.51788181  1
  Cl  Cl7  1  0.48677893  0.32247183  0.77422451  1
  Cl  Cl8  1  0.15475435  0.44136492  0.95569353  1
  Cl  Cl9  1  0.30230172  0.51173955  0.23751691  1
  Cl  Cl10  1  0.10388863  0.49476397  0.52129710  1
  Cl  Cl11  1  0.29632385  0.51211444  0.76185848  1
  Cl  Cl12  1  0.96446338  0.66942307  0.98799773  1
  Cl  Cl13  1  0.96675940  0.84601965  0.25601882  1
  Cl  Cl14  1  0.04996416  0.75232045  0.45972538  1
  Cl  Cl15  1  0.96083801  0.78732269  0.78422720  1
  Cl  Cl16  1  0.74931057  0.54145830  0.02144588  1
  Cl  Cl17  1  0.80793741  0.44225967  0.24357486  1
  Cl  Cl18  1  0.78510861  0.52373821  0.53798686  1
  Cl  Cl19  1  0.73359965  0.41186325  0.74240579  1
  Cl  Cl20  1  0.55440262  0.69083363  0.02055495  1
  Cl  Cl21  1  0.43187199  0.72247826  0.22429673  1
  Cl  Cl22  1  0.56529392  0.63842865  0.52406437  1
  Cl  Cl23  1  0.46922285  0.88467286  0.77108556  1
  Cl  Cl24  1  0.31162373  0.12822084  0.04030115  1
  Cl  Cl25  1  0.28244915  0.00049533  0.22426482  1
  Cl  Cl26  1  0.16502271  0.98032151  0.48337386  1
  Cl  Cl27  1  0.23450105  0.94711474  0.74464804  1
  Cl  Cl28  1  0.65834277  0.01841460  0.02263089  1
  Cl  Cl29  1  0.74510110  0.94144989  0.28285378  1
  Cl  Cl30  1  0.70587187  0.03635600  0.49609088  1
  Cl  Cl31  1  0.77375855  0.92397400  0.71479610  1
  Cl  Cl32  1  0.08014031  0.13763229  0.14243621  1
  Cl  Cl33  1  0.08276764  0.10462500  0.31308803  1
  Cl  Cl34  1  0.23551460  0.20395097  0.60524623  1
  Cl  Cl35  1  0.05394550  0.06038336  0.84238797  1
  Cl  Cl36  1  0.52512046  0.11963152  0.15294895  1
  Cl  Cl37  1  0.59018874  0.13130533  0.33644259  1
  Cl  Cl38  1  0.68040142  0.12808112  0.65590133  1
  Cl  Cl39  1  0.64483597  0.10725490  0.83466673  1
  Cl  Cl40  1  0.47375365  0.42481302  0.10767744  1
  Cl  Cl41  1  0.42598575  0.34874304  0.44217421  1
  Cl  Cl42  1  0.32746039  0.43528559  0.58227998  1
  Cl  Cl43  1  0.37998565  0.39827581  0.92879300  1
  Cl  Cl44  1  0.08066514  0.56289772  0.12948675  1
  Cl  Cl45  1  0.08681219  0.61361655  0.31159656  1
  Cl  Cl46  1  0.21576031  0.72391869  0.60799211  1
  Cl  Cl47  1  0.06705304  0.58004161  0.83460392  1
  Cl  Cl48  1  0.93454395  0.38498845  0.05800720  1
  Cl  Cl49  1  0.93967597  0.45457385  0.39922315  1
  Cl  Cl50  1  0.79776339  0.27633325  0.54099423  1
  Cl  Cl51  1  0.93673861  0.35311084  0.86037170  1
  Cl  Cl52  1  0.63323327  0.59770826  0.18357719  1
  Cl  Cl53  1  0.51973869  0.56046379  0.36578253  1
  Cl  Cl54  1  0.71088887  0.65639666  0.69367089  1
  Cl  Cl55  1  0.55744873  0.56943217  0.86652202  1
  Cl  Cl56  1  0.38853164  0.87908977  0.09325250  1
  Cl  Cl57  1  0.40871072  0.83946177  0.42349846  1
  Cl  Cl58  1  0.35937533  0.91842127  0.57653102  1
  Cl  Cl59  1  0.39194963  0.93404808  0.93424144  1
  Cl  Cl60  1  0.90553763  0.88489894  0.05466893  1
  Cl  Cl61  1  0.91992625  0.97308242  0.40819636  1
  Cl  Cl62  1  0.84430920  0.81595771  0.54752502  1
  Cl  Cl63  1  0.85039414  0.91361598  0.88200222  1
  Cl  Cl64  1  0.83597281  0.09982203  0.16015962  1
  Cl  Cl65  1  0.85335839  0.19631037  0.34151900  1
  Cl  Cl66  1  0.91764113  0.06296843  0.57913032  1
  Cl  Cl67  1  0.84798379  0.14703510  0.94719569  1
  Cl  Cl68  1  0.33894747  0.23127388  0.22913432  1
  Cl  Cl69  1  0.36187574  0.07105913  0.38286387  1
  Cl  Cl70  1  0.43929523  0.11966254  0.68693806  1
  Cl  Cl71  1  0.33607296  0.15533940  0.85634382  1
  Cl  Cl72  1  0.21044517  0.34837310  0.10924031  1
  Cl  Cl73  1  0.19985361  0.37779539  0.38151741  1
  Cl  Cl74  1  0.94272142  0.38111584  0.65273980  1
  Cl  Cl75  1  0.16212180  0.31047303  0.78642914  1
  Cl  Cl76  1  0.88032001  0.66697377  0.15686005  1
  Cl  Cl77  1  0.79050543  0.66719747  0.36069380  1
  Cl  Cl78  1  0.96876357  0.59554636  0.65512484  1
  Cl  Cl79  1  0.83155609  0.59054268  0.85028961  1
  Cl  Cl80  1  0.70327441  0.30768183  0.11994179  1
  Cl  Cl81  1  0.68579350  0.38544283  0.40459682  1
  Cl  Cl82  1  0.56825919  0.37547556  0.60429739  1
  Cl  Cl83  1  0.68351884  0.34245318  0.90878619  1
  Cl  Cl84  1  0.32190272  0.62548727  0.05479935  1
  Cl  Cl85  1  0.28430088  0.62946333  0.45003983  1
  Cl  Cl86  1  0.43820082  0.65808858  0.68489241  1
  Cl  Cl87  1  0.35537906  0.70215385  0.89365516  1
  Cl  Cl88  1  0.15222026  0.81840470  0.10675443  1
  Cl  Cl89  1  0.20581016  0.84713620  0.33277438  1
  Cl  Cl90  1  0.04950314  0.89491424  0.64504693  1
  Cl  Cl91  1  0.12668904  0.85722563  0.92914287  1
  Cl  Cl92  1  0.69233184  0.82370114  0.13390403  1
  Cl  Cl93  1  0.63753006  0.82475786  0.42974137  1
  Cl  Cl94  1  0.58973605  0.88174372  0.61082904  1
  Cl  Cl95  1  0.64815413  0.81627905  0.88260846  1
  Hg  Hg96  1  0.03464629  0.26828274  0.08241444  1
  Hg  Hg97  1  0.01139972  0.28620736  0.35692198  1
  Hg  Hg98  1  0.85506755  0.21945475  0.64103233  1
  Hg  Hg99  1  0.04850762  0.22482918  0.85444525  1
  Hg  Hg100  1  0.49729820  0.27919555  0.15517931  1
  Hg  Hg101  1  0.50367202  0.23676032  0.39026741  1
  Hg  Hg102  1  0.54647893  0.21260925  0.61185999  1
  Hg  Hg103  1  0.49211330  0.26584951  0.88066711  1
  Hg  Hg104  1  0.24403210  0.51755124  0.12552008  1
  Hg  Hg105  1  0.13325637  0.53583607  0.40808271  1
  Hg  Hg106  1  0.26724077  0.57921855  0.58319433  1
  Hg  Hg107  1  0.22681664  0.46110482  0.85573470  1
  Hg  Hg108  1  0.01326057  0.73673068  0.10625007  1
  Hg  Hg109  1  0.03452178  0.79197729  0.35044202  1
  Hg  Hg110  1  0.00364435  0.74621224  0.65693161  1
  Hg  Hg111  1  0.05355312  0.72848434  0.88359404  1
  Hg  Hg112  1  0.68387369  0.46647165  0.12915860  1
  Hg  Hg113  1  0.78093534  0.50278925  0.35671660  1
  Hg  Hg114  1  0.75929131  0.46986947  0.64116995  1
  Hg  Hg115  1  0.70893709  0.50694108  0.90049333  1
  Hg  Hg116  1  0.48163245  0.73100637  0.11624997  1
  Hg  Hg117  1  0.45694115  0.69279769  0.40457361  1
  Hg  Hg118  1  0.57951104  0.71724327  0.63552202  1
  Hg  Hg119  1  0.49439295  0.77742027  0.87716470  1
  Hg  Hg120  1  0.25588093  0.12656462  0.14837053  1
  Hg  Hg121  1  0.20394445  0.02436966  0.36632429  1
  Hg  Hg122  1  0.31180141  0.06795521  0.58810597  1
  Hg  Hg123  1  0.32889221  0.98573878  0.83240182  1
  Hg  Hg124  1  0.77500629  0.96229340  0.12499290  1
  Hg  Hg125  1  0.76236041  0.92253795  0.40312966  1
  Hg  Hg126  1  0.77235468  0.95917327  0.59751203  1
  Hg  Hg127  1  0.72986311  0.01607650  0.91348952  1
  Na  Na128  1  0.97790035  0.00263429  0.95662363  1
  Na  Na129  1  0.90854669  0.04099757  0.27955587  1
  Na  Na130  1  0.99968792  0.91864382  0.51937020  1
  Na  Na131  1  0.94011233  0.97303613  0.76166370  1
  Na  Na132  1  0.46791979  0.03198995  0.03549245  1
  Na  Na133  1  0.43487062  0.07939774  0.26545669  1
  Na  Na134  1  0.52858981  0.95138519  0.49752713  1
  Na  Na135  1  0.59407776  0.00359707  0.72929080  1
  Na  Na136  1  0.26003628  0.28773277  0.98798453  1
  Na  Na137  1  0.21865249  0.35634484  0.25463787  1
  Na  Na138  1  0.20317182  0.33343730  0.50605487  1
  Na  Na139  1  0.31810784  0.23508294  0.74134713  1
  Na  Na140  1  0.97634636  0.49121977  0.95084624  1
  Na  Na141  1  0.97491176  0.51252265  0.22677061  1
  Na  Na142  1  0.93796476  0.40234084  0.52342520  1
  Na  Na143  1  0.93657247  0.47952587  0.76416604  1
  Na  Na144  1  0.70630349  0.21539279  0.00903658  1
  Na  Na145  1  0.71882338  0.28827504  0.28615114  1
  Na  Na146  1  0.86669019  0.14145789  0.46584774  1
  Na  Na147  1  0.79083159  0.23605301  0.83703146  1
  Na  Na148  1  0.44016014  0.55917079  0.96751024  1
  Na  Na149  1  0.48145681  0.51845092  0.23615874  1
  Na  Na150  1  0.56235200  0.45989183  0.48728095  1
  Na  Na151  1  0.47795746  0.50669082  0.76069999  1
  Na  Na152  1  0.27718944  0.80850542  0.00124137  1
  Na  Na153  1  0.27807559  0.82552203  0.20263332  1
  Na  Na154  1  0.23254926  0.80922499  0.46653368  1
  Na  Na155  1  0.34255447  0.81938663  0.69063511  1
  Na  Na156  1  0.79554182  0.72250108  0.04304089  1
  Na  Na157  1  0.78638233  0.76921210  0.24496830  1
  Na  Na158  1  0.73551584  0.69568531  0.48975011  1
  Na  Na159  1  0.77849616  0.76130201  0.79356590  1
