# generated using pymatgen
data_NaHgF3
_symmetry_space_group_name_H-M   'P 1'
_cell_length_a   12.92070341
_cell_length_b   12.92070341
_cell_length_c   18.27263400
_cell_angle_alpha   90.00000000
_cell_angle_beta   90.00000000
_cell_angle_gamma   90.00000000
_symmetry_Int_Tables_number   1
_chemical_formula_structural   NaHgF3
_chemical_formula_sum   'Na32 Hg32 F96'
_cell_volume   3050.51714739
_cell_formula_units_Z   32
loop_
 _symmetry_equiv_pos_site_id
 _symmetry_equiv_pos_as_xyz
  1  'x, y, z'
loop_
 _atom_site_type_symbol
 _atom_site_label
 _atom_site_symmetry_multiplicity
 _atom_site_fract_x
 _atom_site_fract_y
 _atom_site_fract_z
 _atom_site_occupancy
  F  F0  1  0.03912682  0.19357834  0.01133122  1
  F  F1  1  0.12376333  0.13591734  0.30648755  1
  F  F2  1  0.13731845  0.14224212  0.46887899  1
  F  F3  1  0.09490842  0.19664196  0.75877358  1
  F  F4  1  0.54311616  0.19127461  0.00938783  1
  F  F5  1  0.62015241  0.15970488  0.30797788  1
  F  F6  1  0.66384189  0.09065766  0.57274397  1
  F  F7  1  0.41410661  0.14850140  0.81242588  1
  F  F8  1  0.36347037  0.35050347  0.98562448  1
  F  F9  1  0.36828667  0.35709178  0.17502280  1
  F  F10  1  0.41544903  0.39658320  0.54673480  1
  F  F11  1  0.38990929  0.32105147  0.71215357  1
  F  F12  1  0.05000021  0.66816432  0.02552395  1
  F  F13  1  0.06087633  0.68938785  0.21503496  1
  F  F14  1  0.12821466  0.61569340  0.45437375  1
  F  F15  1  0.06129691  0.68101888  0.74045840  1
  F  F16  1  0.87196088  0.36997860  0.03286772  1
  F  F17  1  0.83482404  0.33903674  0.19655926  1
  F  F18  1  0.00281347  0.33916888  0.47620682  1
  F  F19  1  0.89690221  0.48119750  0.71587937  1
  F  F20  1  0.59090545  0.68600914  0.95647155  1
  F  F21  1  0.55413897  0.65511554  0.20814640  1
  F  F22  1  0.70533046  0.51214799  0.49737935  1
  F  F23  1  0.71343018  0.61998718  0.72355636  1
  F  F24  1  0.45106631  0.92262118  0.04935572  1
  F  F25  1  0.39073815  0.81808724  0.23218736  1
  F  F26  1  0.39739856  0.89408705  0.57038924  1
  F  F27  1  0.37085624  0.80045049  0.72823951  1
  F  F28  1  0.88456316  0.87777356  0.93903737  1
  F  F29  1  0.81309011  0.85162370  0.24988766  1
  F  F30  1  0.02690189  0.80684211  0.51496903  1
  F  F31  1  0.94588413  0.86291329  0.74103233  1
  F  F32  1  0.77274062  0.15390456  0.90702249  1
  F  F33  1  0.86969880  0.08124363  0.23543142  1
  F  F34  1  0.89102365  0.13856195  0.52698885  1
  F  F35  1  0.87442706  0.11116221  0.72993365  1
  F  F36  1  0.29870936  0.10461765  0.99448004  1
  F  F37  1  0.32691034  0.08945234  0.18413177  1
  F  F38  1  0.42349033  0.12947451  0.50672218  1
  F  F39  1  0.32798319  0.08545569  0.67612453  1
  F  F40  1  0.11756640  0.41522447  0.95855085  1
  F  F41  1  0.18396845  0.35487275  0.27945575  1
  F  F42  1  0.22101450  0.40083639  0.45169477  1
  F  F43  1  0.20496269  0.43733890  0.77437115  1
  F  F44  1  0.84193129  0.59622497  0.02203277  1
  F  F45  1  0.82065499  0.60412655  0.18624470  1
  F  F46  1  0.92387125  0.54113311  0.53099812  1
  F  F47  1  0.83423894  0.73109569  0.62134446  1
  F  F48  1  0.65089101  0.38449756  0.03996218  1
  F  F49  1  0.59170416  0.38047014  0.20126895  1
  F  F50  1  0.60479955  0.26786561  0.46365771  1
  F  F51  1  0.66964400  0.43634675  0.81615930  1
  F  F52  1  0.36418527  0.70365150  0.99681454  1
  F  F53  1  0.31809247  0.58521624  0.20300668  1
  F  F54  1  0.33495297  0.65817290  0.52034369  1
  F  F55  1  0.44298775  0.56068997  0.67717685  1
  F  F56  1  0.17084964  0.92601000  0.00195245  1
  F  F57  1  0.13017846  0.91448096  0.29677301  1
  F  F58  1  0.20219365  0.93527527  0.47681872  1
  F  F59  1  0.17716025  0.96696276  0.77475619  1
  F  F60  1  0.63979212  0.91041779  0.95042777  1
  F  F61  1  0.60303421  0.82026150  0.31715981  1
  F  F62  1  0.65350564  0.92031112  0.47082153  1
  F  F63  1  0.72493693  0.93236334  0.77071210  1
  F  F64  1  0.96163535  0.96160969  0.10704262  1
  F  F65  1  0.91825986  0.96963438  0.39709711  1
  F  F66  1  0.06918865  0.03635543  0.60411357  1
  F  F67  1  0.04187715  0.05283392  0.89025920  1
  F  F68  1  0.61387311  0.94957571  0.17509201  1
  F  F69  1  0.41648771  0.01945480  0.34696643  1
  F  F70  1  0.54119328  0.02161237  0.68942132  1
  F  F71  1  0.37448438  0.91864111  0.87167299  1
  F  F72  1  0.15544676  0.29648707  0.12651705  1
  F  F73  1  0.31952504  0.21341642  0.38035606  1
  F  F74  1  0.19822936  0.29660244  0.59840989  1
  F  F75  1  0.22642901  0.24595832  0.88298049  1
  F  F76  1  0.02974379  0.47122877  0.15654788  1
  F  F77  1  0.92136561  0.55274384  0.35976808  1
  F  F78  1  0.15407082  0.52440106  0.63291261  1
  F  F79  1  0.96958361  0.56499767  0.86044642  1
  F  F80  1  0.73259924  0.09228568  0.06872323  1
  F  F81  1  0.79735914  0.30015057  0.38207764  1
  F  F82  1  0.66617083  0.21099213  0.73419809  1
  F  F83  1  0.91413404  0.33104298  0.84455415  1
  F  F84  1  0.48408718  0.53586364  0.08191226  1
  F  F85  1  0.44330867  0.54771005  0.34822530  1
  F  F86  1  0.65874668  0.43156097  0.63920073  1
  F  F87  1  0.42615599  0.50843331  0.86264742  1
  F  F88  1  0.24892078  0.79693667  0.12084771  1
  F  F89  1  0.28268874  0.72061643  0.35697189  1
  F  F90  1  0.18282342  0.81447530  0.63308849  1
  F  F91  1  0.15110309  0.76473353  0.87498612  1
  F  F92  1  0.77629863  0.79899985  0.09453398  1
  F  F93  1  0.80358943  0.74315581  0.43427315  1
  F  F94  1  0.59159757  0.75704686  0.60207136  1
  F  F95  1  0.80080850  0.71383214  0.85442001  1
  Hg  Hg96  1  0.99877005  0.00517084  0.99945466  1
  Hg  Hg97  1  0.00106350  0.00452849  0.27120456  1
  Hg  Hg98  1  0.01905784  0.98992818  0.49076660  1
  Hg  Hg99  1  0.02051460  0.02574247  0.74375109  1
  Hg  Hg100  1  0.58274834  0.02178860  0.04820008  1
  Hg  Hg101  1  0.50382187  0.96206413  0.26030406  1
  Hg  Hg102  1  0.53100212  0.98722465  0.55255143  1
  Hg  Hg103  1  0.40959921  0.97503699  0.76202364  1
  Hg  Hg104  1  0.21226327  0.25408650  0.01659582  1
  Hg  Hg105  1  0.25928454  0.21942607  0.23576804  1
  Hg  Hg106  1  0.29724393  0.24885352  0.50370304  1
  Hg  Hg107  1  0.25947434  0.22560995  0.74906568  1
  Hg  Hg108  1  0.97594453  0.50489384  0.98032831  1
  Hg  Hg109  1  0.96668602  0.53199224  0.25239788  1
  Hg  Hg110  1  0.09068363  0.46759330  0.52952930  1
  Hg  Hg111  1  0.05465317  0.49432136  0.74914264  1
  Hg  Hg112  1  0.72544317  0.25691238  0.99116310  1
  Hg  Hg113  1  0.72891780  0.25834850  0.26107697  1
  Hg  Hg114  1  0.75247761  0.19717468  0.48246391  1
  Hg  Hg115  1  0.79237575  0.27117844  0.78731916  1
  Hg  Hg116  1  0.47170839  0.54224981  0.96890148  1
  Hg  Hg117  1  0.46321422  0.48061549  0.23839629  1
  Hg  Hg118  1  0.56769399  0.43916715  0.52814696  1
  Hg  Hg119  1  0.56114641  0.49767574  0.74138420  1
  Hg  Hg120  1  0.19662575  0.74906745  0.00182028  1
  Hg  Hg121  1  0.21848632  0.75261341  0.24426435  1
  Hg  Hg122  1  0.21019718  0.76682897  0.49445460  1
  Hg  Hg123  1  0.20557458  0.77840242  0.75716699  1
  Hg  Hg124  1  0.75159953  0.75665326  0.97378407  1
  Hg  Hg125  1  0.69745067  0.74038733  0.21508233  1
  Hg  Hg126  1  0.70206436  0.75274675  0.52102039  1
  Hg  Hg127  1  0.76244646  0.78207089  0.73153196  1
  Na  Na128  1  0.98187689  0.29953614  0.11189999  1
  Na  Na129  1  0.12382563  0.27698280  0.38416053  1
  Na  Na130  1  0.04762505  0.21033599  0.56129260  1
  Na  Na131  1  0.04814220  0.23153853  0.88462300  1
  Na  Na132  1  0.49215107  0.34179158  0.08674994  1
  Na  Na133  1  0.48819376  0.16898887  0.39373812  1
  Na  Na134  1  0.49774168  0.19009188  0.70492487  1
  Na  Na135  1  0.41204761  0.19651518  0.92833986  1
  Na  Na136  1  0.21181999  0.44948473  0.17682556  1
  Na  Na137  1  0.29334066  0.55752913  0.41662244  1
  Na  Na138  1  0.30802147  0.44621010  0.65067947  1
  Na  Na139  1  0.26950095  0.41761060  0.88663410  1
  Na  Na140  1  0.93238614  0.70848299  0.11588390  1
  Na  Na141  1  0.96082436  0.67168688  0.45201008  1
  Na  Na142  1  0.00742060  0.77253822  0.63773815  1
  Na  Na143  1  0.97633968  0.74913214  0.84986714  1
  Na  Na144  1  0.76756819  0.47337874  0.10852704  1
  Na  Na145  1  0.85692063  0.43902698  0.44151927  1
  Na  Na146  1  0.80043335  0.54381977  0.62191187  1
  Na  Na147  1  0.80799764  0.54746171  0.81544237  1
  Na  Na148  1  0.40771167  0.70060274  0.12963872  1
  Na  Na149  1  0.45812030  0.71600942  0.31851673  1
  Na  Na150  1  0.41848859  0.72781415  0.61889296  1
  Na  Na151  1  0.47977877  0.82452318  0.94700425  1
  Na  Na152  1  0.29382031  0.97696125  0.08655694  1
  Na  Na153  1  0.24031792  0.04486314  0.37998693  1
  Na  Na154  1  0.24297529  0.97608742  0.60014625  1
  Na  Na155  1  0.22282900  0.00300923  0.89904547  1
  Na  Na156  1  0.79879256  0.96591424  0.15125834  1
  Na  Na157  1  0.75700283  0.88670420  0.36854953  1
  Na  Na158  1  0.71744112  0.05755133  0.68720034  1
  Na  Na159  1  0.76604881  0.98021239  0.88423447  1
