# generated using pymatgen
data_NaMgCl3
_symmetry_space_group_name_H-M   'P 1'
_cell_length_a   14.02261195
_cell_length_b   14.02261195
_cell_length_c   19.83096800
_cell_angle_alpha   90.00000000
_cell_angle_beta   90.00000000
_cell_angle_gamma   90.00000000
_symmetry_Int_Tables_number   1
_chemical_formula_structural   NaMgCl3
_chemical_formula_sum   'Na32 Mg32 Cl96'
_cell_volume   3899.43553974
_cell_formula_units_Z   32
loop_
 _symmetry_equiv_pos_site_id
 _symmetry_equiv_pos_as_xyz
  1  'x, y, z'
loop_
 _atom_site_type_symbol
 _atom_site_label
 _atom_site_symmetry_multiplicity
 _atom_site_fract_x
 _atom_site_fract_y
 _atom_site_fract_z
 _atom_site_occupancy
  Cl  Cl0  1  0.14666136  0.09721439  0.02845846  1
  Cl  Cl1  1  0.09543075  0.15028679  0.22608441  1
  Cl  Cl2  1  0.15574518  0.09642228  0.52013016  1
  Cl  Cl3  1  0.10366611  0.14516724  0.72297137  1
  Cl  Cl4  1  0.65751292  0.09249513  0.02257319  1
  Cl  Cl5  1  0.59774514  0.14973841  0.22274232  1
  Cl  Cl6  1  0.65318863  0.09417856  0.52306346  1
  Cl  Cl7  1  0.59985972  0.14915478  0.72199473  1
  Cl  Cl8  1  0.35276121  0.39668901  0.97136878  1
  Cl  Cl9  1  0.40168127  0.34764240  0.27220722  1
  Cl  Cl10  1  0.34780112  0.39746604  0.47311555  1
  Cl  Cl11  1  0.40334821  0.34574766  0.77312831  1
  Cl  Cl12  1  0.15262362  0.59522950  0.02687187  1
  Cl  Cl13  1  0.10118360  0.64774553  0.22295858  1
  Cl  Cl14  1  0.14393113  0.59971979  0.52826112  1
  Cl  Cl15  1  0.10099438  0.64619146  0.72037703  1
  Cl  Cl16  1  0.85129791  0.39716953  0.96992973  1
  Cl  Cl17  1  0.90220989  0.34615399  0.27625527  1
  Cl  Cl18  1  0.84562127  0.40228845  0.47486967  1
  Cl  Cl19  1  0.90454399  0.34675584  0.77157336  1
  Cl  Cl20  1  0.65528439  0.59405099  0.02184108  1
  Cl  Cl21  1  0.60541513  0.64778162  0.22025812  1
  Cl  Cl22  1  0.65428369  0.59571918  0.52047311  1
  Cl  Cl23  1  0.59864407  0.64920691  0.72448715  1
  Cl  Cl24  1  0.34536482  0.89817624  -0.02641744  1
  Cl  Cl25  1  0.40854288  0.84317033  0.27233251  1
  Cl  Cl26  1  0.35602155  0.89536644  0.46973445  1
  Cl  Cl27  1  0.39709386  0.84605780  0.77761094  1
  Cl  Cl28  1  0.85216876  0.89573088  0.97183165  1
  Cl  Cl29  1  0.90361032  0.84571951  0.27522011  1
  Cl  Cl30  1  0.84483442  0.90113002  0.47704309  1
  Cl  Cl31  1  0.89671811  0.84933457  0.77289315  1
  Cl  Cl32  1  0.90213197  0.14873165  0.97389844  1
  Cl  Cl33  1  0.84694762  0.09738613  0.27313649  1
  Cl  Cl34  1  0.89546757  0.14658755  0.46911190  1
  Cl  Cl35  1  0.84973458  0.09917850  0.77534116  1
  Cl  Cl36  1  0.40306666  0.14839038  0.97333494  1
  Cl  Cl37  1  0.35394365  0.09948468  0.27930701  1
  Cl  Cl38  1  0.39805574  0.14590579  0.47163498  1
  Cl  Cl39  1  0.34807617  0.09478581  0.77241404  1
  Cl  Cl40  1  0.09459790  0.34319255  0.02276591  1
  Cl  Cl41  1  0.15553010  0.40106997  0.22675939  1
  Cl  Cl42  1  0.09594836  0.34442119  0.52521909  1
  Cl  Cl43  1  0.14679632  0.39653690  0.72099744  1
  Cl  Cl44  1  0.90468318  0.64858238  0.97588218  1
  Cl  Cl45  1  0.85069184  0.59787255  0.27527055  1
  Cl  Cl46  1  0.90020093  0.64885508  0.47253292  1
  Cl  Cl47  1  0.85069268  0.59865392  0.77717823  1
  Cl  Cl48  1  0.59628484  0.34439730  0.02255930  1
  Cl  Cl49  1  0.64821617  0.39716871  0.21969942  1
  Cl  Cl50  1  0.60239961  0.34957284  0.52759911  1
  Cl  Cl51  1  0.64828550  0.39589672  0.72275021  1
  Cl  Cl52  1  0.39663651  0.64624414  -0.03153869  1
  Cl  Cl53  1  0.34653531  0.59543133  0.26997852  1
  Cl  Cl54  1  0.39869118  0.64747280  0.47343426  1
  Cl  Cl55  1  0.34375584  0.59357036  0.77213364  1
  Cl  Cl56  1  0.10012180  0.84478473  0.02746218  1
  Cl  Cl57  1  0.15518884  0.89974425  0.22198818  1
  Cl  Cl58  1  0.10091136  0.84810896  0.52376543  1
  Cl  Cl59  1  0.15431041  0.90006277  0.72881685  1
  Cl  Cl60  1  0.59300626  0.84408455  0.02197700  1
  Cl  Cl61  1  0.64948977  0.89894666  0.21973993  1
  Cl  Cl62  1  0.59787140  0.84722108  0.52406641  1
  Cl  Cl63  1  0.64360871  0.89449035  0.72043511  1
  Cl  Cl64  1  -0.05138400  0.00289987  0.12386302  1
  Cl  Cl65  1  0.05026304  0.00585295  0.37277586  1
  Cl  Cl66  1  -0.04954720  0.00169261  0.62323577  1
  Cl  Cl67  1  0.04982424  -0.01300743  0.87647045  1
  Cl  Cl68  1  0.44813301  -0.00906585  0.12447661  1
  Cl  Cl69  1  0.55271597  -0.00100220  0.37335158  1
  Cl  Cl70  1  0.44586334  -0.01035226  0.62557109  1
  Cl  Cl71  1  0.55142366  0.98957187  0.87529486  1
  Cl  Cl72  1  0.30125131  0.24579516  0.12361994  1
  Cl  Cl73  1  0.20118526  0.24967397  0.37224632  1
  Cl  Cl74  1  0.30176917  0.24143373  0.62605579  1
  Cl  Cl75  1  0.19855243  0.24575211  0.87560923  1
  Cl  Cl76  1  -0.05128518  0.50389987  0.12439715  1
  Cl  Cl77  1  0.05206165  0.50487931  0.37320043  1
  Cl  Cl78  1  -0.05286967  0.49977155  0.62385355  1
  Cl  Cl79  1  0.05360448  0.49216410  0.87614539  1
  Cl  Cl80  1  0.80103870  0.24226306  0.12453746  1
  Cl  Cl81  1  0.69649889  0.24245883  0.37412578  1
  Cl  Cl82  1  0.80295088  0.25561900  0.62303752  1
  Cl  Cl83  1  0.69917424  0.24024619  0.87597356  1
  Cl  Cl84  1  0.45110994  0.49513136  0.12389987  1
  Cl  Cl85  1  0.55115774  0.49674800  0.37340558  1
  Cl  Cl86  1  0.44911789  0.49169260  0.62494653  1
  Cl  Cl87  1  0.55133328  0.49171379  0.87523132  1
  Cl  Cl88  1  0.30278238  0.74829115  0.12339584  1
  Cl  Cl89  1  0.19861653  0.74878911  0.37350357  1
  Cl  Cl90  1  0.30169588  0.74098591  0.62506465  1
  Cl  Cl91  1  0.19501140  0.74356510  0.87541109  1
  Cl  Cl92  1  0.80049532  0.74309659  0.12448851  1
  Cl  Cl93  1  0.69795191  0.74402237  0.37426753  1
  Cl  Cl94  1  0.80101592  0.75398322  0.62255099  1
  Cl  Cl95  1  0.70038231  0.74068020  0.87679919  1
  Mg  Mg96  1  0.00036368  -0.00283707  -0.00109548  1
  Mg  Mg97  1  0.00408013  -0.00920889  0.24817592  1
  Mg  Mg98  1  0.00145365  -0.00357412  0.50098051  1
  Mg  Mg99  1  -0.00537082  -0.00153940  0.74728460  1
  Mg  Mg100  1  0.50208672  0.00567465  0.00050231  1
  Mg  Mg101  1  0.49903088  -0.00101516  0.24973742  1
  Mg  Mg102  1  0.49780812  0.00271409  0.50341238  1
  Mg  Mg103  1  0.50314053  0.00553861  0.74990016  1
  Mg  Mg104  1  0.25265068  0.24614617  -0.00140063  1
  Mg  Mg105  1  0.24925597  0.24318172  0.24468869  1
  Mg  Mg106  1  0.24950161  0.25395043  0.50372442  1
  Mg  Mg107  1  0.24974037  0.25185073  0.75358565  1
  Mg  Mg108  1  -0.00019723  0.49405389  -0.00005735  1
  Mg  Mg109  1  0.00048190  0.49101134  0.24906758  1
  Mg  Mg110  1  0.00208937  0.49152639  0.49806722  1
  Mg  Mg111  1  -0.00235723  0.50206819  0.75162959  1
  Mg  Mg112  1  0.74831349  0.25210518  0.00042965  1
  Mg  Mg113  1  0.75205305  0.25492543  0.25149315  1
  Mg  Mg114  1  0.75019713  0.24909926  0.50002895  1
  Mg  Mg115  1  0.74991944  0.24602923  0.74877088  1
  Mg  Mg116  1  0.50040000  0.50107077  0.00020566  1
  Mg  Mg117  1  0.50291225  0.50411423  0.25259662  1
  Mg  Mg118  1  0.49596212  0.49886869  0.49787349  1
  Mg  Mg119  1  0.50169282  0.50303317  0.74991929  1
  Mg  Mg120  1  0.25103332  0.74650907  -0.00126886  1
  Mg  Mg121  1  0.25085889  0.75381927  0.25399452  1
  Mg  Mg122  1  0.24938902  0.74726217  0.49806010  1
  Mg  Mg123  1  0.24836840  0.74739913  0.74737115  1
  Mg  Mg124  1  0.74711339  0.75234396  0.00124364  1
  Mg  Mg125  1  0.75208434  0.75525023  0.25170752  1
  Mg  Mg126  1  0.74997913  0.74861907  0.49968573  1
  Mg  Mg127  1  0.75068388  0.74625091  0.74890853  1
  Na  Na128  1  0.00174761  0.20596877  0.10571683  1
  Na  Na129  1  0.00232815  0.20749588  0.35445898  1
  Na  Na130  1  0.00279395  0.28588339  0.64682154  1
  Na  Na131  1  0.00228991  0.28752524  0.89040007  1
  Na  Na132  1  0.49633653  0.29239206  0.14195752  1
  Na  Na133  1  0.49760647  0.21419357  0.35760004  1
  Na  Na134  1  0.49950400  0.29004384  0.64678272  1
  Na  Na135  1  0.50087711  0.28887476  0.89376913  1
  Na  Na136  1  0.25478718  0.53642893  0.14609461  1
  Na  Na137  1  0.25087537  0.45802396  0.35591268  1
  Na  Na138  1  0.25115691  0.53496644  0.64282401  1
  Na  Na139  1  0.25214501  0.53161792  0.89158287  1
  Na  Na140  1  -0.00218746  0.70852148  0.10737653  1
  Na  Na141  1  0.00456689  0.70926337  0.35531727  1
  Na  Na142  1  0.00026189  0.71312091  0.60220787  1
  Na  Na143  1  0.99173149  0.78656688  0.88665441  1
  Na  Na144  1  0.74776860  0.54059165  0.14495678  1
  Na  Na145  1  0.74557974  0.53738187  0.39479155  1
  Na  Na146  1  0.74733974  0.45921882  0.60536916  1
  Na  Na147  1  0.74833726  0.53845651  0.89238318  1
  Na  Na148  1  0.50383549  0.78911959  0.14524015  1
  Na  Na149  1  0.49863593  0.78503737  0.39786128  1
  Na  Na150  1  0.49786663  0.78615675  0.64607684  1
  Na  Na151  1  0.50432634  0.78799970  0.89342710  1
  Na  Na152  1  0.24879027  -0.03929086  0.10416744  1
  Na  Na153  1  0.25025523  0.03555914  0.39804541  1
  Na  Na154  1  0.24721979  0.04056082  0.64464612  1
  Na  Na155  1  0.24782095  0.96376221  0.85277020  1
  Na  Na156  1  0.75057763  0.04162702  0.14568799  1
  Na  Na157  1  0.75177465  0.03892805  0.39553887  1
  Na  Na158  1  0.75546535  0.96140947  0.60830931  1
  Na  Na159  1  0.75108443  0.03802539  0.89188544  1
