# generated using pymatgen
data_NaMgF3
_symmetry_space_group_name_H-M   'P 1'
_cell_length_a   11.13602529
_cell_length_b   11.13602529
_cell_length_c   15.74871800
_cell_angle_alpha   90.00000000
_cell_angle_beta   90.00000000
_cell_angle_gamma   90.00000000
_symmetry_Int_Tables_number   1
_chemical_formula_structural   NaMgF3
_chemical_formula_sum   'Na32 Mg32 F96'
_cell_volume   1953.01520214
_cell_formula_units_Z   32
loop_
 _symmetry_equiv_pos_site_id
 _symmetry_equiv_pos_as_xyz
  1  'x, y, z'
loop_
 _atom_site_type_symbol
 _atom_site_label
 _atom_site_symmetry_multiplicity
 _atom_site_fract_x
 _atom_site_fract_y
 _atom_site_fract_z
 _atom_site_occupancy
  F  F0  1  0.99230253  0.28783922  -0.00006610  1
  F  F1  1  0.00276639  0.20455440  0.25052045  1
  F  F2  1  0.00404307  0.30047205  0.50002203  1
  F  F3  1  0.00279894  0.20441071  0.74942752  1
  F  F4  1  0.45016378  0.24684191  -0.00001008  1
  F  F5  1  0.54543494  0.24838918  0.24932197  1
  F  F6  1  0.46224420  0.25706082  0.49995607  1
  F  F7  1  0.54544170  0.24833846  0.75060016  1
  F  F8  1  0.24720762  0.44980913  0.00001031  1
  F  F9  1  0.24870360  0.54510097  0.24930236  1
  F  F10  1  0.25766156  0.46169416  0.49996713  1
  F  F11  1  0.24858803  0.54500859  0.75058897  1
  F  F12  1  0.95020184  0.74679435  0.00001309  1
  F  F13  1  0.04542924  0.74832037  0.24930214  1
  F  F14  1  0.96226302  0.75688896  0.49996509  1
  F  F15  1  0.04544453  0.74838351  0.75062754  1
  F  F16  1  0.78852393  0.49157198  -0.00007198  1
  F  F17  1  0.70517642  0.50217875  0.25046339  1
  F  F18  1  0.80083927  0.50306960  0.50000203  1
  F  F19  1  0.70510833  0.50217108  0.74945106  1
  F  F20  1  0.49226830  0.78792907  -0.00002183  1
  F  F21  1  0.50298674  0.70451251  0.25046623  1
  F  F22  1  0.50404359  0.80042618  0.49998149  1
  F  F23  1  0.50287000  0.70448042  0.74944769  1
  F  F24  1  0.28852531  0.99161985  -0.00002045  1
  F  F25  1  0.20524730  0.00226990  0.25052780  1
  F  F26  1  0.30092435  0.00318423  0.49998316  1
  F  F27  1  0.20517969  0.00218737  0.74939069  1
  F  F28  1  0.74707065  0.94987904  0.00002558  1
  F  F29  1  0.74870979  0.04512089  0.24937483  1
  F  F30  1  0.75752207  0.96167030  0.49996013  1
  F  F31  1  0.74862943  0.04509568  0.75061299  1
  F  F32  1  0.14992631  0.14938388  0.11004758  1
  F  F33  1  0.11475956  0.11416409  0.40443637  1
  F  F34  1  0.11462527  0.11406060  0.59543184  1
  F  F35  1  0.14986219  0.14922434  0.88999360  1
  F  F36  1  0.63652805  0.13609772  0.09573136  1
  F  F37  1  0.60088992  0.10048263  0.38936726  1
  F  F38  1  0.60085246  0.10038141  0.61055448  1
  F  F39  1  0.63646292  0.13593012  0.90429449  1
  F  F40  1  0.35692484  0.35650716  0.15227420  1
  F  F41  1  0.40855081  0.40808613  0.35867252  1
  F  F42  1  0.40854303  0.40806931  0.64119106  1
  F  F43  1  0.35696545  0.35652891  0.84769473  1
  F  F44  1  0.13652374  0.63611893  0.09566865  1
  F  F45  1  0.10088869  0.60042202  0.38938983  1
  F  F46  1  0.10086594  0.60039875  0.61051141  1
  F  F47  1  0.13632029  0.63595253  0.90427964  1
  F  F48  1  0.84213204  0.34154028  0.14145995  1
  F  F49  1  0.89372765  0.39317653  0.34752018  1
  F  F50  1  0.89376377  0.39316641  0.65239614  1
  F  F51  1  0.84218697  0.34154819  0.85840163  1
  F  F52  1  0.65007766  0.64949421  0.11006855  1
  F  F53  1  0.61472511  0.61416116  0.40446455  1
  F  F54  1  0.61465997  0.61409483  0.59543649  1
  F  F55  1  0.64979720  0.64930697  0.88997444  1
  F  F56  1  0.34211097  0.84155610  0.14155051  1
  F  F57  1  0.39379834  0.89323861  0.34752719  1
  F  F58  1  0.39382388  0.89324660  0.65235542  1
  F  F59  1  0.34221652  0.84158336  0.85840175  1
  F  F60  1  0.85683837  0.85646322  0.15227935  1
  F  F61  1  0.90862454  0.90812936  0.35878264  1
  F  F62  1  0.90863665  0.90809674  0.64114736  1
  F  F63  1  0.85690982  0.85651845  0.84774228  1
  F  F64  1  0.89572475  0.09817540  0.10485884  1
  F  F65  1  0.85553533  0.15160957  0.39531426  1
  F  F66  1  0.85541864  0.15165585  0.60464870  1
  F  F67  1  0.89559414  0.09818333  0.89515445  1
  F  F68  1  0.39461726  0.09990013  0.14709080  1
  F  F69  1  0.35661167  0.14983186  0.35245630  1
  F  F70  1  0.35644980  0.14989888  0.64739712  1
  F  F71  1  0.39439233  0.10000447  0.85269270  1
  F  F72  1  0.10033728  0.39409542  0.14705883  1
  F  F73  1  0.15042129  0.35604244  0.35237649  1
  F  F74  1  0.15040667  0.35601809  0.64747699  1
  F  F75  1  0.10050128  0.39384521  0.85270697  1
  F  F76  1  0.89461925  0.59977168  0.14704746  1
  F  F77  1  0.85651799  0.64980075  0.35243611  1
  F  F78  1  0.85655212  0.64985115  0.64746514  1
  F  F79  1  0.89443217  0.59995788  0.85271924  1
  F  F80  1  0.59858569  0.39537615  0.10485335  1
  F  F81  1  0.65205844  0.35502153  0.39519053  1
  F  F82  1  0.65207092  0.35493009  0.60476409  1
  F  F83  1  0.59864884  0.39518822  0.89508353  1
  F  F84  1  0.39571293  0.59813503  0.10494273  1
  F  F85  1  0.35550583  0.65162169  0.39517635  1
  F  F86  1  0.35545312  0.65156378  0.60474226  1
  F  F87  1  0.39554200  0.59815664  0.89506631  1
  F  F88  1  0.09864059  0.89533539  0.10488684  1
  F  F89  1  0.15210723  0.85489796  0.39512473  1
  F  F90  1  0.15214236  0.85481965  0.60481121  1
  F  F91  1  0.09875783  0.89509814  0.89513717  1
  F  F92  1  0.60025651  0.89409473  0.14716089  1
  F  F93  1  0.65040936  0.85604523  0.35243282  1
  F  F94  1  0.65042872  0.85598545  0.64749274  1
  F  F95  1  0.60048453  0.89384619  0.85273324  1
  Mg  Mg96  1  0.99603522  0.24802470  0.12543858  1
  Mg  Mg97  1  0.00489200  0.25179981  0.37452994  1
  Mg  Mg98  1  0.00484963  0.25173310  0.62544100  1
  Mg  Mg99  1  0.99597663  0.24794338  0.87444747  1
  Mg  Mg100  1  0.49857775  0.24585550  0.12532103  1
  Mg  Mg101  1  0.50226562  0.25440959  0.37450161  1
  Mg  Mg102  1  0.50224417  0.25433415  0.62543919  1
  Mg  Mg103  1  0.49859884  0.24569405  0.87462919  1
  Mg  Mg104  1  0.24618959  0.49816673  0.12531142  1
  Mg  Mg105  1  0.25485590  0.50182103  0.37450658  1
  Mg  Mg106  1  0.25481629  0.50180836  0.62542553  1
  Mg  Mg107  1  0.24611342  0.49814118  0.87463204  1
  Mg  Mg108  1  0.99852208  0.74581322  0.12535468  1
  Mg  Mg109  1  0.00223380  0.75433967  0.37452637  1
  Mg  Mg110  1  0.00228954  0.75428794  0.62543064  1
  Mg  Mg111  1  0.99848878  0.74572686  0.87464120  1
  Mg  Mg112  1  0.74857391  0.49548489  0.12539584  1
  Mg  Mg113  1  0.75232901  0.50430433  0.37448230  1
  Mg  Mg114  1  0.75237086  0.50429330  0.62543940  1
  Mg  Mg115  1  0.74859614  0.49533590  0.87452383  1
  Mg  Mg116  1  0.49599945  0.74800211  0.12542263  1
  Mg  Mg117  1  0.50486757  0.75176386  0.37449721  1
  Mg  Mg118  1  0.50484275  0.75171956  0.62547924  1
  Mg  Mg119  1  0.49596157  0.74795515  0.87453668  1
  Mg  Mg120  1  0.24862817  0.99543576  0.12548087  1
  Mg  Mg121  1  0.25235700  0.00430348  0.37451480  1
  Mg  Mg122  1  0.25232259  0.00425929  0.62542097  1
  Mg  Mg123  1  0.24862423  0.99541643  0.87448772  1
  Mg  Mg124  1  0.74623023  0.99809343  0.12537302  1
  Mg  Mg125  1  0.75486839  0.00184005  0.37452278  1
  Mg  Mg126  1  0.75486816  0.00181059  0.62543766  1
  Mg  Mg127  1  0.74616653  0.99807077  0.87463577  1
  Na  Na128  1  0.98238178  0.98190399  0.99998431  1
  Na  Na129  1  0.99237106  0.99175608  0.23563834  1
  Na  Na130  1  0.99357280  0.99355232  0.49992305  1
  Na  Na131  1  0.99235164  0.99153855  0.76414450  1
  Na  Na132  1  0.50777387  0.00727133  0.00040309  1
  Na  Na133  1  0.51484606  0.01419621  0.25783553  1
  Na  Na134  1  0.50697527  0.00676608  0.49995426  1
  Na  Na135  1  0.51487081  0.01402433  0.74219733  1
  Na  Na136  1  0.24370545  0.24341767  0.99996346  1
  Na  Na137  1  0.23626726  0.23549570  0.24205086  1
  Na  Na138  1  0.24284408  0.24247874  0.50012128  1
  Na  Na139  1  0.23605265  0.23556054  0.75804013  1
  Na  Na140  1  0.00747749  0.50718283  0.00043713  1
  Na  Na141  1  0.01484319  0.51412251  0.25777661  1
  Na  Na142  1  0.00691671  0.50675957  0.49999197  1
  Na  Na143  1  0.01485471  0.51403530  0.74213962  1
  Na  Na144  1  0.75718317  0.25661081  0.00004774  1
  Na  Na145  1  0.75805300  0.25788598  0.26380469  1
  Na  Na146  1  0.76979143  0.26955621  0.49993333  1
  Na  Na147  1  0.75796125  0.25781436  0.73603279  1
  Na  Na148  1  0.48179350  0.48154827  -0.00001190  1
  Na  Na149  1  0.49229946  0.49177196  0.23558661  1
  Na  Na150  1  0.49386561  0.49323896  0.49997804  1
  Na  Na151  1  0.49238370  0.49168354  0.76419206  1
  Na  Na152  1  0.25699601  0.75670027  -0.00006055  1
  Na  Na153  1  0.25795397  0.75775212  0.26394675  1
  Na  Na154  1  0.26991544  0.76949535  0.49996098  1
  Na  Na155  1  0.25807581  0.75770727  0.73608570  1
  Na  Na156  1  0.74378363  0.74355223  -0.00007176  1
  Na  Na157  1  0.73574493  0.73535547  0.24200398  1
  Na  Na158  1  0.74278162  0.74255196  0.50001327  1
  Na  Na159  1  0.73592482  0.73531418  0.75813854  1
