# generated using pymatgen
data_NaPbF3
_symmetry_space_group_name_H-M   'P 1'
_cell_length_a   13.53578873
_cell_length_b   13.53578873
_cell_length_c   19.14249700
_cell_angle_alpha   90.00000000
_cell_angle_beta   90.00000000
_cell_angle_gamma   90.00000000
_symmetry_Int_Tables_number   1
_chemical_formula_structural   NaPbF3
_chemical_formula_sum   'Na32 Pb32 F96'
_cell_volume   3507.24190955
_cell_formula_units_Z   32
loop_
 _symmetry_equiv_pos_site_id
 _symmetry_equiv_pos_as_xyz
  1  'x, y, z'
loop_
 _atom_site_type_symbol
 _atom_site_label
 _atom_site_symmetry_multiplicity
 _atom_site_fract_x
 _atom_site_fract_y
 _atom_site_fract_z
 _atom_site_occupancy
  F  F0  1  0.02274017  0.33838091  0.99170294  1
  F  F1  1  0.00506094  0.28675696  0.25829267  1
  F  F2  1  0.00295938  0.22344217  0.51765156  1
  F  F3  1  0.93604676  0.21929932  0.76124916  1
  F  F4  1  0.56665738  0.31650298  0.97407032  1
  F  F5  1  0.52261575  0.29970107  0.23104569  1
  F  F6  1  0.45076076  0.24763285  0.47650411  1
  F  F7  1  0.45286551  0.25594958  0.73666003  1
  F  F8  1  0.23943447  0.41116474  0.98007915  1
  F  F9  1  0.31328678  0.53299967  0.22379742  1
  F  F10  1  0.24412147  0.51747523  0.47811071  1
  F  F11  1  0.29323301  0.52932034  0.73041938  1
  F  F12  1  0.96784428  0.83936816  0.00036393  1
  F  F13  1  0.04098990  0.77655588  0.24196394  1
  F  F14  1  0.04852109  0.65662496  0.47287112  1
  F  F15  1  0.00720054  0.74359372  0.76127567  1
  F  F16  1  0.70765040  0.51172195  0.00192570  1
  F  F17  1  0.76658735  0.43335630  0.26418797  1
  F  F18  1  0.75281269  0.53093279  0.50949170  1
  F  F19  1  0.74673082  0.57511582  0.75000210  1
  F  F20  1  0.51340363  0.81442385  0.99551091  1
  F  F21  1  0.51181860  0.78668013  0.24711783  1
  F  F22  1  0.52693757  0.78208815  0.50115888  1
  F  F23  1  0.43058953  0.73924043  0.75058196  1
  F  F24  1  0.25306029  0.98633503  0.99570317  1
  F  F25  1  0.26035063  0.97898067  0.25011508  1
  F  F26  1  0.28095145  0.98499524  0.49951991  1
  F  F27  1  0.32693703  0.99683953  0.74815243  1
  F  F28  1  0.71663362  0.08240797  0.00941993  1
  F  F29  1  0.76854877  0.97936637  0.25683039  1
  F  F30  1  0.78602282  0.98081128  0.51635566  1
  F  F31  1  0.76444348  0.06015524  0.76311043  1
  F  F32  1  0.17876508  0.17957907  0.11415767  1
  F  F33  1  0.16003729  0.13435776  0.41610496  1
  F  F34  1  0.09384502  0.08581523  0.67946186  1
  F  F35  1  0.12927554  0.13818996  0.92973946  1
  F  F36  1  0.66312420  0.17156325  0.16184713  1
  F  F37  1  0.62672142  0.12178947  0.40060088  1
  F  F38  1  0.62825083  0.13211291  0.58777274  1
  F  F39  1  0.64446216  0.15527354  0.86692559  1
  F  F40  1  0.37870556  0.36083125  0.12782605  1
  F  F41  1  0.33904174  0.31158843  0.31792778  1
  F  F42  1  0.37515656  0.39001889  0.62229966  1
  F  F43  1  0.37639341  0.40126266  0.83736975  1
  F  F44  1  0.17836914  0.65866624  0.13219664  1
  F  F45  1  0.13762331  0.59632281  0.34050238  1
  F  F46  1  0.11157178  0.60854078  0.66788872  1
  F  F47  1  0.12108663  0.61985000  0.92507612  1
  F  F48  1  0.91913706  0.42469105  0.15086778  1
  F  F49  1  0.90115145  0.38493383  0.39910715  1
  F  F50  1  0.92042413  0.41014606  0.66445175  1
  F  F51  1  0.83785745  0.34971068  0.88872650  1
  F  F52  1  0.66316415  0.66026743  0.13359880  1
  F  F53  1  0.59295959  0.59405620  0.42296918  1
  F  F54  1  0.65806325  0.65525883  0.61291348  1
  F  F55  1  0.56809338  0.58614414  0.86028319  1
  F  F56  1  0.40122999  0.89927918  0.14035221  1
  F  F57  1  0.39384135  0.88087413  0.37864020  1
  F  F58  1  0.41538779  0.89707987  0.61922671  1
  F  F59  1  0.34874053  0.86293545  0.89243176  1
  F  F60  1  0.88231365  0.86439735  0.14701449  1
  F  F61  1  0.90039861  0.88454395  0.36331956  1
  F  F62  1  0.85942815  0.87772072  0.67032436  1
  F  F63  1  0.89519236  0.92253190  0.84442613  1
  F  F64  1  0.88657777  0.15491444  0.13164190  1
  F  F65  1  0.88440500  0.10897948  0.40621408  1
  F  F66  1  0.87760057  0.09972419  0.63110386  1
  F  F67  1  0.84627835  0.14480176  0.89595163  1
  F  F68  1  0.38393917  0.14455113  0.16651342  1
  F  F69  1  0.37391887  0.09321428  0.38247387  1
  F  F70  1  0.32501533  0.14617487  0.60030503  1
  F  F71  1  0.39638879  0.09678629  0.90589948  1
  F  F72  1  0.16341664  0.38542188  0.15985293  1
  F  F73  1  0.12095345  0.38535195  0.39181298  1
  F  F74  1  0.14820318  0.35504188  0.68888168  1
  F  F75  1  0.05863042  0.42404720  0.84379621  1
  F  F76  1  0.87349637  0.65185485  0.09125863  1
  F  F77  1  0.91614385  0.57232358  0.34298720  1
  F  F78  1  0.87292251  0.64276178  0.63799718  1
  F  F79  1  0.87422836  0.60337584  0.89483056  1
  F  F80  1  0.60957898  0.40373174  0.12838518  1
  F  F81  1  0.64554266  0.35762772  0.41174705  1
  F  F82  1  0.60684578  0.35359656  0.57444564  1
  F  F83  1  0.64163107  0.35211942  0.81868308  1
  F  F84  1  0.44210632  0.56129188  0.09270301  1
  F  F85  1  0.34705868  0.63896270  0.37574874  1
  F  F86  1  0.33184861  0.64713705  0.60489810  1
  F  F87  1  0.33742420  0.63577029  0.88088324  1
  F  F88  1  0.10779681  0.92211073  0.10680458  1
  F  F89  1  0.15526502  0.81142586  0.39090868  1
  F  F90  1  0.17441698  0.82785490  0.66760645  1
  F  F91  1  0.11993636  0.86690179  0.89703364  1
  F  F92  1  0.64190362  0.86704457  0.13250193  1
  F  F93  1  0.65553856  0.82708585  0.36480776  1
  F  F94  1  0.61166710  0.84771563  0.68072753  1
  F  F95  1  0.55412558  0.90860270  0.84954393  1
  Na  Na96  1  0.08233271  0.96454835  0.99393824  1
  Na  Na97  1  0.92408393  0.91172189  0.25159752  1
  Na  Na98  1  0.91432668  0.08566108  0.51838653  1
  Na  Na99  1  0.92818600  0.01606513  0.73511408  1
  Na  Na100  1  0.46809078  0.96205135  0.94799235  1
  Na  Na101  1  0.40765464  0.91343997  0.25766451  1
  Na  Na102  1  0.42880459  0.91949601  0.49802610  1
  Na  Na103  1  0.47447333  0.91993275  0.74254631  1
  Na  Na104  1  0.17645501  0.25938662  0.00743088  1
  Na  Na105  1  0.27908176  0.27258103  0.20212093  1
  Na  Na106  1  0.29970500  0.15653228  0.48446725  1
  Na  Na107  1  0.31406545  0.35134906  0.72990187  1
  Na  Na108  1  0.98808883  0.50265645  0.93856296  1
  Na  Na109  1  0.93462862  0.43653361  0.26900527  1
  Na  Na110  1  0.02292207  0.50706432  0.42512876  1
  Na  Na111  1  0.04218101  0.47613464  0.72790302  1
  Na  Na112  1  0.71813121  0.23766375  0.95807286  1
  Na  Na113  1  0.68607139  0.31212701  0.21977281  1
  Na  Na114  1  0.64620387  0.22874278  0.49050762  1
  Na  Na115  1  0.76884534  0.23153890  0.79731464  1
  Na  Na116  1  0.55078639  0.46715281  0.02600053  1
  Na  Na117  1  0.47165331  0.46500506  0.19107050  1
  Na  Na118  1  0.58818519  0.46150165  0.49332072  1
  Na  Na119  1  0.43408549  0.54636190  0.79572634  1
  Na  Na120  1  0.22948205  0.75066257  0.91967080  1
  Na  Na121  1  0.19360342  0.67002213  0.24518197  1
  Na  Na122  1  0.21367489  0.67601117  0.44456487  1
  Na  Na123  1  0.26427390  0.69972611  0.70691621  1
  Na  Na124  1  0.76875015  0.77572574  0.09410384  1
  Na  Na125  1  0.66528670  0.85005358  0.24937546  1
  Na  Na126  1  0.67725347  0.68349202  0.49997780  1
  Na  Na127  1  0.75490108  0.74305153  0.69060062  1
  Pb  Pb128  1  0.01677587  0.28443756  0.13886467  1
  Pb  Pb129  1  0.01890698  0.23901529  0.39434984  1
  Pb  Pb130  1  0.01421066  0.24163035  0.65208578  1
  Pb  Pb131  1  0.98697527  0.25929608  0.88350272  1
  Pb  Pb132  1  0.50742606  0.24413320  0.11783322  1
  Pb  Pb133  1  0.48133161  0.22083100  0.35795857  1
  Pb  Pb134  1  0.48014459  0.24552241  0.61315664  1
  Pb  Pb135  1  0.50294207  0.26591834  0.85900581  1
  Pb  Pb136  1  0.26722921  0.50774716  0.10684175  1
  Pb  Pb137  1  0.26565741  0.47447350  0.35872168  1
  Pb  Pb138  1  0.24393299  0.50199736  0.60706777  1
  Pb  Pb139  1  0.22493261  0.49328507  0.87708563  1
  Pb  Pb140  1  0.02158885  0.76994145  0.11326837  1
  Pb  Pb141  1  0.00368934  0.73293207  0.36642008  1
  Pb  Pb142  1  0.01752967  0.75048975  0.64512753  1
  Pb  Pb143  1  0.97148296  0.77578481  0.88191320  1
  Pb  Pb144  1  0.76655390  0.52220745  0.11583646  1
  Pb  Pb145  1  0.76186941  0.48284331  0.38244481  1
  Pb  Pb146  1  0.77492004  0.50609944  0.63638390  1
  Pb  Pb147  1  0.72999953  0.50757977  0.86599353  1
  Pb  Pb148  1  0.50703200  0.76224160  0.11697716  1
  Pb  Pb149  1  0.50049914  0.73311463  0.37591325  1
  Pb  Pb150  1  0.49693132  0.74198972  0.62641418  1
  Pb  Pb151  1  0.48568876  0.75097779  0.87698021  1
  Pb  Pb152  1  0.26071285  0.01738640  0.12764758  1
  Pb  Pb153  1  0.23564208  0.97827166  0.37974433  1
  Pb  Pb154  1  0.24864767  0.99586513  0.64128611  1
  Pb  Pb155  1  0.25226201  0.01854154  0.87657510  1
  Pb  Pb156  1  0.76249508  0.04426651  0.12532267  1
  Pb  Pb157  1  0.75762863  0.99123556  0.38778333  1
  Pb  Pb158  1  0.73385904  0.00273088  0.63311731  1
  Pb  Pb159  1  0.74217578  0.01202686  0.87840795  1
