# generated using pymatgen
data_NaPbCl3
_symmetry_space_group_name_H-M   'P 1'
_cell_length_a   15.96119186
_cell_length_b   15.96119186
_cell_length_c   22.57253500
_cell_angle_alpha   90.00000000
_cell_angle_beta   90.00000000
_cell_angle_gamma   90.00000000
_symmetry_Int_Tables_number   1
_chemical_formula_structural   NaPbCl3
_chemical_formula_sum   'Na32 Pb32 Cl96'
_cell_volume   5750.57101668
_cell_formula_units_Z   32
loop_
 _symmetry_equiv_pos_site_id
 _symmetry_equiv_pos_as_xyz
  1  'x, y, z'
loop_
 _atom_site_type_symbol
 _atom_site_label
 _atom_site_symmetry_multiplicity
 _atom_site_fract_x
 _atom_site_fract_y
 _atom_site_fract_z
 _atom_site_occupancy
  Na  Na0  1  0.97366857  0.95268856  0.99973479  1
  Na  Na1  1  0.04777533  0.05695232  0.19849977  1
  Na  Na2  1  0.04231346  0.07538750  0.47724229  1
  Na  Na3  1  0.95324846  0.05723124  0.77483943  1
  Na  Na4  1  0.46145405  0.97819128  0.94031090  1
  Na  Na5  1  0.54332057  0.03576492  0.21207596  1
  Na  Na6  1  0.51150930  0.95282100  0.48966196  1
  Na  Na7  1  0.39042149  0.99236565  0.76965947  1
  Na  Na8  1  0.20981381  0.26439145  0.03544386  1
  Na  Na9  1  0.23952136  0.19397122  0.31034352  1
  Na  Na10  1  0.31128507  0.23228265  0.49567218  1
  Na  Na11  1  0.17265761  0.19530210  0.69122919  1
  Na  Na12  1  0.09567564  0.52959511  -0.00571171  1
  Na  Na13  1  0.01869213  0.57711592  0.26607648  1
  Na  Na14  1  0.00474654  0.54586957  0.44320216  1
  Na  Na15  1  0.99948752  0.48531656  0.66113509  1
  Na  Na16  1  0.82856199  0.34461491  0.01038502  1
  Na  Na17  1  0.77238437  0.23456113  0.21037548  1
  Na  Na18  1  0.66865923  0.15345098  0.52123645  1
  Na  Na19  1  0.67028736  0.18124699  0.74302986  1
  Na  Na20  1  0.43503903  0.41721553  0.00576625  1
  Na  Na21  1  0.50365013  0.48089292  0.29040539  1
  Na  Na22  1  0.49105482  0.50540508  0.55894944  1
  Na  Na23  1  0.58039933  0.47327530  0.76252097  1
  Na  Na24  1  0.28914892  0.69453438  0.95873364  1
  Na  Na25  1  0.34227851  0.71485638  0.26238674  1
  Na  Na26  1  0.30303503  0.80841163  0.50370071  1
  Na  Na27  1  0.35845097  0.61826302  0.73440878  1
  Na  Na28  1  0.76142845  0.79814630  0.95670517  1
  Na  Na29  1  0.83674251  0.72820954  0.26343402  1
  Na  Na30  1  0.81261081  0.68472840  0.44515550  1
  Na  Na31  1  0.83728942  0.68529231  0.74927445  1
  Pb  Pb32  1  0.99909029  0.26630424  0.13201336  1
  Pb  Pb33  1  0.96466993  0.25921866  0.36206250  1
  Pb  Pb34  1  0.97196071  0.23194238  0.61078111  1
  Pb  Pb35  1  0.00303336  0.25623889  0.88873231  1
  Pb  Pb36  1  0.49806709  0.27061585  0.12626621  1
  Pb  Pb37  1  0.49287167  0.25400522  0.37172373  1
  Pb  Pb38  1  0.48515948  0.26093693  0.62051882  1
  Pb  Pb39  1  0.51150437  0.26241694  0.87454443  1
  Pb  Pb40  1  0.23752999  0.51143071  0.12484419  1
  Pb  Pb41  1  0.22040543  0.48937714  0.36565569  1
  Pb  Pb42  1  0.23740426  0.48521596  0.60819513  1
  Pb  Pb43  1  0.25106574  0.49195868  0.86672805  1
  Pb  Pb44  1  0.97641429  0.76164119  0.12528425  1
  Pb  Pb45  1  0.01713776  0.78566257  0.38061386  1
  Pb  Pb46  1  0.02200832  0.75432269  0.62247548  1
  Pb  Pb47  1  0.00122762  0.76337996  0.87733786  1
  Pb  Pb48  1  0.72739129  0.52046369  0.13112302  1
  Pb  Pb49  1  0.73346101  0.48947708  0.36710687  1
  Pb  Pb50  1  0.75574913  0.50814265  0.61209264  1
  Pb  Pb51  1  0.75549487  0.51534514  0.88410298  1
  Pb  Pb52  1  0.49436363  0.75642038  0.13338002  1
  Pb  Pb53  1  0.50563368  0.75066260  0.38356240  1
  Pb  Pb54  1  0.52989456  0.74330571  0.63646731  1
  Pb  Pb55  1  0.50957952  0.75265703  0.88237323  1
  Pb  Pb56  1  0.26811780  0.00365612  0.13948409  1
  Pb  Pb57  1  0.26921771  0.98982028  0.38102219  1
  Pb  Pb58  1  0.25943626  0.99627325  0.62297670  1
  Pb  Pb59  1  0.23835950  0.02723354  0.89771426  1
  Pb  Pb60  1  0.74926395  0.99473172  0.13725569  1
  Pb  Pb61  1  0.74527439  0.00303786  0.38305275  1
  Pb  Pb62  1  0.75986025  0.97718379  0.62736379  1
  Pb  Pb63  1  0.76240127  0.01088132  0.88229869  1
  Cl  Cl64  1  0.95898761  0.23599564  0.01497133  1
  Cl  Cl65  1  0.06655799  0.22042174  0.26582726  1
  Cl  Cl66  1  0.99872347  0.24752421  0.49347635  1
  Cl  Cl67  1  0.02698463  0.20530890  0.76112789  1
  Cl  Cl68  1  0.50970891  0.25312329  0.99949039  1
  Cl  Cl69  1  0.48782188  0.31561723  0.25368749  1
  Cl  Cl70  1  0.48974535  0.20023478  0.50112083  1
  Cl  Cl71  1  0.53829841  0.30204474  0.74632684  1
  Cl  Cl72  1  0.28357152  0.53043934  0.99779945  1
  Cl  Cl73  1  0.17084938  0.49477112  0.24201609  1
  Cl  Cl74  1  0.17680568  0.51029844  0.49250481  1
  Cl  Cl75  1  0.27863549  0.47181090  0.74326664  1
  Cl  Cl76  1  0.93254945  0.77591115  0.99413126  1
  Cl  Cl77  1  0.01383639  0.75484448  0.24847458  1
  Cl  Cl78  1  0.97545969  0.70837637  0.48731652  1
  Cl  Cl79  1  0.99391022  0.77854726  0.74228568  1
  Cl  Cl80  1  0.78389516  0.50732148  0.00766596  1
  Cl  Cl81  1  0.66687276  0.51334913  0.25465342  1
  Cl  Cl82  1  0.81679994  0.51869042  0.49220667  1
  Cl  Cl83  1  0.73682862  0.53322139  0.74644003  1
  Cl  Cl84  1  0.44357962  0.75532773  0.99388465  1
  Cl  Cl85  1  0.51458391  0.74183620  0.25599636  1
  Cl  Cl86  1  0.47437002  0.78625837  0.50909137  1
  Cl  Cl87  1  0.52378631  0.64845788  0.74112912  1
  Cl  Cl88  1  0.31481701  0.00226478  0.00410807  1
  Cl  Cl89  1  0.20092687  0.02792262  0.25533964  1
  Cl  Cl90  1  0.33847683  0.97940678  0.49675886  1
  Cl  Cl91  1  0.22920211  0.04066997  0.74307329  1
  Cl  Cl92  1  0.79493539  0.96659042  0.00596908  1
  Cl  Cl93  1  0.71017687  0.01419822  0.26054066  1
  Cl  Cl94  1  0.68048843  0.97963631  0.51238599  1
  Cl  Cl95  1  0.78777083  0.04833314  0.75046296  1
  Cl  Cl96  1  0.13704267  0.15387262  0.11486133  1
  Cl  Cl97  1  0.19204007  0.13588358  0.42248733  1
  Cl  Cl98  1  0.08903350  0.09599801  0.60265547  1
  Cl  Cl99  1  0.16594938  0.17473335  0.93250997  1
  Cl  Cl100  1  0.64332668  0.15754553  0.15114391  1
  Cl  Cl101  1  0.66270987  0.15247764  0.39798962  1
  Cl  Cl102  1  0.60649334  0.13424449  0.63654974  1
  Cl  Cl103  1  0.65700761  0.16445384  0.86214019  1
  Cl  Cl104  1  0.33936010  0.34653696  0.09578710  1
  Cl  Cl105  1  0.32776243  0.31877852  0.38313414  1
  Cl  Cl106  1  0.37041865  0.38201061  0.55835264  1
  Cl  Cl107  1  0.36087475  0.36850746  0.89814486  1
  Cl  Cl108  1  0.11653909  0.63066376  0.09501456  1
  Cl  Cl109  1  0.12290104  0.63612786  0.36448686  1
  Cl  Cl110  1  0.11666069  0.60535781  0.64978906  1
  Cl  Cl111  1  0.13315792  0.65321934  0.91140623  1
  Cl  Cl112  1  0.83263193  0.35244507  0.13189638  1
  Cl  Cl113  1  0.82264428  0.32288791  0.31110435  1
  Cl  Cl114  1  0.87093922  0.38102306  0.63811038  1
  Cl  Cl115  1  0.85398106  0.35127794  0.88975913  1
  Cl  Cl116  1  0.64119988  0.66744851  0.10859852  1
  Cl  Cl117  1  0.66208907  0.64415815  0.39522070  1
  Cl  Cl118  1  0.61481312  0.62293084  0.57669302  1
  Cl  Cl119  1  0.66826580  0.66815760  0.90772212  1
  Cl  Cl120  1  0.34801639  0.86159027  0.17742038  1
  Cl  Cl121  1  0.33466458  0.80724494  0.37485431  1
  Cl  Cl122  1  0.40808424  0.92500521  0.66119033  1
  Cl  Cl123  1  0.38086149  0.87754770  0.85811046  1
  Cl  Cl124  1  0.82817604  0.84150722  0.16550348  1
  Cl  Cl125  1  0.84537391  0.82656826  0.37065754  1
  Cl  Cl126  1  0.90478772  0.89658329  0.60378951  1
  Cl  Cl127  1  0.83904380  0.85807773  0.85450959  1
  Cl  Cl128  1  0.89593623  0.12549595  0.16723611  1
  Cl  Cl129  1  0.90431361  0.08124808  0.38882893  1
  Cl  Cl130  1  0.82724044  0.13254582  0.58253110  1
  Cl  Cl131  1  0.92221257  0.08100685  0.89119177  1
  Cl  Cl132  1  0.40135533  0.10237404  0.16035735  1
  Cl  Cl133  1  0.39530699  0.10567137  0.33800156  1
  Cl  Cl134  1  0.31564012  0.17134217  0.61707216  1
  Cl  Cl135  1  0.41354599  0.10461974  0.86160526  1
  Cl  Cl136  1  0.11020986  0.39630173  0.07767819  1
  Cl  Cl137  1  0.04539073  0.41781079  0.36715678  1
  Cl  Cl138  1  0.11179657  0.35212462  0.63839697  1
  Cl  Cl139  1  0.09699800  0.40632606  0.90372226  1
  Cl  Cl140  1  0.87449730  0.61134198  0.17242923  1
  Cl  Cl141  1  0.88421984  0.59919814  0.34605797  1
  Cl  Cl142  1  0.88885209  0.62308719  0.64069539  1
  Cl  Cl143  1  0.89919734  0.62550301  0.85483277  1
  Cl  Cl144  1  0.56706376  0.42534977  0.10081795  1
  Cl  Cl145  1  0.57196779  0.41590593  0.39511221  1
  Cl  Cl146  1  0.60485066  0.39122884  0.60080708  1
  Cl  Cl147  1  0.59686665  0.42905336  0.87974030  1
  Cl  Cl148  1  0.37067435  0.62906446  0.15639675  1
  Cl  Cl149  1  0.37272648  0.57575417  0.33683750  1
  Cl  Cl150  1  0.37161098  0.60959477  0.61237423  1
  Cl  Cl151  1  0.36262667  0.63419261  0.85649083  1
  Cl  Cl152  1  0.04683085  0.92300513  0.11271787  1
  Cl  Cl153  1  0.11071978  0.92037191  0.42768239  1
  Cl  Cl154  1  0.18535303  0.83203872  0.59433660  1
  Cl  Cl155  1  0.10109735  0.92102522  0.91808951  1
  Cl  Cl156  1  0.59305714  0.91971718  0.12972330  1
  Cl  Cl157  1  0.56773453  0.90756401  0.37906486  1
  Cl  Cl158  1  0.67594048  0.82078003  0.66762462  1
  Cl  Cl159  1  0.60747656  0.89604378  0.91273762  1
