# generated using pymatgen
data_NaSnF3
_symmetry_space_group_name_H-M   'P 1'
_cell_length_a   13.19982816
_cell_length_b   13.19982816
_cell_length_c   18.66737500
_cell_angle_alpha   90.00000000
_cell_angle_beta   90.00000000
_cell_angle_gamma   90.00000000
_symmetry_Int_Tables_number   1
_chemical_formula_structural   NaSnF3
_chemical_formula_sum   'Na32 Sn32 F96'
_cell_volume   3252.51873289
_cell_formula_units_Z   32
loop_
 _symmetry_equiv_pos_site_id
 _symmetry_equiv_pos_as_xyz
  1  'x, y, z'
loop_
 _atom_site_type_symbol
 _atom_site_label
 _atom_site_symmetry_multiplicity
 _atom_site_fract_x
 _atom_site_fract_y
 _atom_site_fract_z
 _atom_site_occupancy
  F  F0  1  0.06913564  0.24505086  0.04709441  1
  F  F1  1  0.06810550  0.27276354  0.32962527  1
  F  F2  1  0.95153450  0.32316195  0.57469619  1
  F  F3  1  0.94561279  0.24315508  0.81407456  1
  F  F4  1  0.59890194  0.18291167  0.03267033  1
  F  F5  1  0.50767485  0.29300495  0.29122369  1
  F  F6  1  0.47132743  0.20706911  0.54300204  1
  F  F7  1  0.41954893  0.21058985  0.78597791  1
  F  F8  1  0.24687668  0.41846407  0.05993365  1
  F  F9  1  0.20430864  0.45178209  0.29970261  1
  F  F10  1  0.26947155  0.44423254  0.54401935  1
  F  F11  1  0.23849933  0.40793829  0.79113484  1
  F  F12  1  0.00673856  0.87128716  0.97775929  1
  F  F13  1  0.02350206  0.78348634  0.33846253  1
  F  F14  1  0.94512336  0.82025040  0.52074899  1
  F  F15  1  0.94402107  0.67982809  0.74383401  1
  F  F16  1  0.77171571  0.42783256  0.03722905  1
  F  F17  1  0.74156103  0.59774724  0.31516825  1
  F  F18  1  0.71811916  0.39616187  0.54651206  1
  F  F19  1  0.70825144  0.57338094  0.76703879  1
  F  F20  1  0.34988768  0.80217754  0.93956204  1
  F  F21  1  0.49637159  0.59370152  0.15989135  1
  F  F22  1  0.44612264  0.69185378  0.45227426  1
  F  F23  1  0.61167539  0.75997773  0.73424518  1
  F  F24  1  0.03522151  0.06653329  0.89747095  1
  F  F25  1  0.30991081  0.13269458  0.24338491  1
  F  F26  1  0.16785050  0.90328889  0.44001104  1
  F  F27  1  0.28280667  0.93662330  0.68327610  1
  F  F28  1  0.70833695  0.03534073  0.94075336  1
  F  F29  1  0.83111490  0.88248794  0.28196261  1
  F  F30  1  0.70139416  0.96232413  0.48973793  1
  F  F31  1  0.87319931  0.12318815  0.68597253  1
  F  F32  1  0.34549628  0.16789815  0.08128918  1
  F  F33  1  0.06985589  0.07517923  0.39368233  1
  F  F34  1  0.13678009  0.24554579  0.52825229  1
  F  F35  1  0.22445433  0.07079163  0.81439852  1
  F  F36  1  0.67912358  0.22719205  0.16481122  1
  F  F37  1  0.68889922  0.23099029  0.43426042  1
  F  F38  1  0.71220129  0.13783955  0.58504210  1
  F  F39  1  0.66450413  0.14999019  0.80533164  1
  F  F40  1  0.34834545  0.43411668  0.18471411  1
  F  F41  1  0.29093278  0.32465539  0.40387874  1
  F  F42  1  0.32875488  0.27095217  0.64273595  1
  F  F43  1  0.35237193  0.25888468  0.92376075  1
  F  F44  1  0.08581684  0.69608971  0.04642674  1
  F  F45  1  0.19920080  0.67752491  0.38139609  1
  F  F46  1  0.20640206  0.60388125  0.66826247  1
  F  F47  1  0.07739576  0.54745568  0.81987451  1
  F  F48  1  0.89937110  0.30256882  0.14526103  1
  F  F49  1  0.87394978  0.40540439  0.31053181  1
  F  F50  1  0.73080224  0.36661355  0.70210822  1
  F  F51  1  0.00172847  0.41140666  0.93423904  1
  F  F52  1  0.55274872  0.44989548  0.03642924  1
  F  F53  1  0.63151484  0.59824051  0.44972165  1
  F  F54  1  0.60875698  0.77127609  0.57885627  1
  F  F55  1  0.66747692  0.60160708  0.93236036  1
  F  F56  1  0.30657390  0.70716434  0.21311745  1
  F  F57  1  0.32826967  0.87684447  0.35037155  1
  F  F58  1  0.27804887  0.82757220  0.56115757  1
  F  F59  1  0.24528829  0.78138754  0.79520382  1
  F  F60  1  0.80949166  0.88094527  0.02272531  1
  F  F61  1  0.88322160  0.99092698  0.40480303  1
  F  F62  1  0.82695084  0.76837851  0.63501284  1
  F  F63  1  0.82438856  0.77971123  0.85200285  1
  F  F64  1  0.83067488  0.08983230  0.04768209  1
  F  F65  1  0.93187171  0.11515750  0.28139509  1
  F  F66  1  0.94221557  0.12157267  0.53994501  1
  F  F67  1  0.83486704  0.01846602  0.82851636  1
  F  F68  1  0.49905964  0.09869298  0.17136965  1
  F  F69  1  0.51185092  0.14539720  0.39586598  1
  F  F70  1  0.44245545  0.08044413  0.66536995  1
  F  F71  1  0.46922449  0.07264948  0.89032452  1
  F  F72  1  0.14721078  0.31396292  0.18416898  1
  F  F73  1  0.11726478  0.48564414  0.43304681  1
  F  F74  1  0.13286380  0.41095443  0.65549761  1
  F  F75  1  0.13366645  0.26076827  0.90208252  1
  F  F76  1  0.87875387  0.68162904  0.01171043  1
  F  F77  1  0.95883587  0.59340982  0.35830207  1
  F  F78  1  0.99146900  0.62038928  0.59783059  1
  F  F79  1  0.87042006  0.57570863  0.87382393  1
  F  F80  1  0.65638399  0.44418147  0.17112167  1
  F  F81  1  0.67167674  0.39568927  0.33700724  1
  F  F82  1  0.59300922  0.52747687  0.63184614  1
  F  F83  1  0.53765218  0.49709966  0.82800247  1
  F  F84  1  0.34264030  0.64874800  0.06886290  1
  F  F85  1  0.48522086  0.54439935  0.33755138  1
  F  F86  1  0.43684909  0.70833735  0.66208343  1
  F  F87  1  0.25677007  0.61904172  0.89775079  1
  F  F88  1  0.16541906  0.08015786  0.12552370  1
  F  F89  1  0.15455872  0.94795706  0.28450536  1
  F  F90  1  0.12133934  0.00612957  0.58429317  1
  F  F91  1  0.05482427  0.93190004  0.78547861  1
  F  F92  1  0.60600210  0.86714495  0.99024915  1
  F  F93  1  0.76265047  0.79571102  0.40555560  1
  F  F94  1  0.69787899  0.98058183  0.69633283  1
  F  F95  1  0.43627195  0.87515343  0.81459640  1
  Na  Na96  1  0.89219723  0.99783253  0.94782850  1
  Na  Na97  1  0.98354513  0.95100722  0.30293167  1
  Na  Na98  1  0.01636850  0.97206725  0.48788221  1
  Na  Na99  1  0.97265957  0.07873712  0.78040390  1
  Na  Na100  1  0.47434103  0.91729578  0.92982529  1
  Na  Na101  1  0.47237509  0.12983326  0.28519331  1
  Na  Na102  1  0.60031562  0.10358407  0.49524942  1
  Na  Na103  1  0.37707037  0.02482247  0.77041950  1
  Na  Na104  1  0.23508178  0.25802681  0.01241243  1
  Na  Na105  1  0.23050827  0.27413810  0.29321050  1
  Na  Na106  1  0.30660225  0.27202752  0.52028965  1
  Na  Na107  1  0.25641531  0.23833207  0.82097046  1
  Na  Na108  1  0.89488414  0.51609556  0.98326461  1
  Na  Na109  1  0.03620491  0.44065270  0.32924970  1
  Na  Na110  1  0.09033519  0.41830072  0.53954772  1
  Na  Na111  1  0.04971217  0.54806240  0.70273274  1
  Na  Na112  1  0.77692671  0.25012422  0.06575959  1
  Na  Na113  1  0.76950590  0.34225576  0.22600247  1
  Na  Na114  1  0.80077426  0.25743067  0.52675235  1
  Na  Na115  1  0.79339101  0.23627543  0.75690028  1
  Na  Na116  1  0.40144209  0.48720734  0.06994803  1
  Na  Na117  1  0.51044257  0.45361249  0.24024019  1
  Na  Na118  1  0.52989347  0.62869916  0.54824988  1
  Na  Na119  1  0.54252918  0.59942498  0.73348443  1
  Na  Na120  1  0.22932214  0.71092309  0.99415564  1
  Na  Na121  1  0.20593632  0.78509880  0.28872032  1
  Na  Na122  1  0.30424010  0.77972659  0.44837675  1
  Na  Na123  1  0.26526898  0.76122840  0.67504352  1
  Na  Na124  1  0.73160987  0.75588231  0.95467784  1
  Na  Na125  1  0.85448327  0.72435919  0.31383102  1
  Na  Na126  1  0.75847728  0.80223637  0.52440973  1
  Na  Na127  1  0.77268929  0.72430266  0.74453655  1
  Sn  Sn128  1  0.02317897  0.19604941  0.15037856  1
  Sn  Sn129  1  0.95409125  0.18536106  0.37861301  1
  Sn  Sn130  1  0.04134280  0.20019512  0.61253588  1
  Sn  Sn131  1  0.97944358  0.24954577  0.92754371  1
  Sn  Sn132  1  0.53105312  0.24380163  0.12421261  1
  Sn  Sn133  1  0.55058348  0.30560676  0.40416185  1
  Sn  Sn134  1  0.48524246  0.23141803  0.65711678  1
  Sn  Sn135  1  0.50037561  0.22834757  0.88603872  1
  Sn  Sn136  1  0.19749182  0.46795385  0.16320911  1
  Sn  Sn137  1  0.27710763  0.48626919  0.40395548  1
  Sn  Sn138  1  0.28420768  0.46015973  0.66374296  1
  Sn  Sn139  1  0.17535175  0.46906997  0.88877348  1
  Sn  Sn140  1  0.96186572  0.79204314  0.06889026  1
  Sn  Sn141  1  0.04948619  0.68676719  0.42792194  1
  Sn  Sn142  1  0.98537057  0.77228714  0.62860536  1
  Sn  Sn143  1  0.96644159  0.69997652  0.85732806  1
  Sn  Sn144  1  0.66824555  0.53630473  0.07950404  1
  Sn  Sn145  1  0.78460061  0.48580447  0.38881185  1
  Sn  Sn146  1  0.74908764  0.48873756  0.63339686  1
  Sn  Sn147  1  0.68821879  0.48216517  0.85912029  1
  Sn  Sn148  1  0.42478553  0.73280060  0.14364095  1
  Sn  Sn149  1  0.55646552  0.67701223  0.36874822  1
  Sn  Sn150  1  0.52814367  0.84399513  0.66185333  1
  Sn  Sn151  1  0.37507691  0.72408750  0.84163650  1
  Sn  Sn152  1  0.31593118  0.04458280  0.14711554  1
  Sn  Sn153  1  0.23754008  0.00887595  0.37014146  1
  Sn  Sn154  1  0.27899349  0.98625623  0.57910336  1
  Sn  Sn155  1  0.14945643  0.95385778  0.87140672  1
  Sn  Sn156  1  0.69331194  0.99118728  0.05096819  1
  Sn  Sn157  1  0.73865812  0.94563911  0.36870503  1
  Sn  Sn158  1  0.80511148  0.01731771  0.61310448  1
  Sn  Sn159  1  0.67979214  0.99431075  0.82403161  1
