# generated using pymatgen
data_NaSnBr3
_symmetry_space_group_name_H-M   'P 1'
_cell_length_a   16.42344029
_cell_length_b   16.42344029
_cell_length_c   23.22625200
_cell_angle_alpha   90.00000000
_cell_angle_beta   90.00000000
_cell_angle_gamma   90.00000000
_symmetry_Int_Tables_number   1
_chemical_formula_structural   NaSnBr3
_chemical_formula_sum   'Na32 Sn32 Br96'
_cell_volume   6264.80280680
_cell_formula_units_Z   32
loop_
 _symmetry_equiv_pos_site_id
 _symmetry_equiv_pos_as_xyz
  1  'x, y, z'
loop_
 _atom_site_type_symbol
 _atom_site_label
 _atom_site_symmetry_multiplicity
 _atom_site_fract_x
 _atom_site_fract_y
 _atom_site_fract_z
 _atom_site_occupancy
  Na  Na0  1  0.00376712  0.95946340  0.08855116  1
  Na  Na1  1  0.01754785  0.90963404  0.26535032  1
  Na  Na2  1  0.04934405  0.07602316  0.51957691  1
  Na  Na3  1  0.97415980  0.93618518  0.72362616  1
  Na  Na4  1  0.48663760  0.02417199  0.93454985  1
  Na  Na5  1  0.45656551  0.96786740  0.26566044  1
  Na  Na6  1  0.53236867  0.06266511  0.57564823  1
  Na  Na7  1  0.42891737  0.98278900  0.72861380  1
  Na  Na8  1  0.30511899  0.29327972  0.96442900  1
  Na  Na9  1  0.30863246  0.24438515  0.26962322  1
  Na  Na10  1  0.21719710  0.22563746  0.42092983  1
  Na  Na11  1  0.26252311  0.23879502  0.77342357  1
  Na  Na12  1  0.97372578  0.41467514  0.02350483  1
  Na  Na13  1  0.01982522  0.47607176  0.23503800  1
  Na  Na14  1  0.99608353  0.46695513  0.47934208  1
  Na  Na15  1  0.96611081  0.50394325  0.71714412  1
  Na  Na16  1  0.82494975  0.18914514  0.00172060  1
  Na  Na17  1  0.73277093  0.18098991  0.28450450  1
  Na  Na18  1  0.69148354  0.20638527  0.48738662  1
  Na  Na19  1  0.78967110  0.24202542  0.72502522  1
  Na  Na20  1  0.49065136  0.50946012  0.96705849  1
  Na  Na21  1  0.52622255  0.49993316  0.19179248  1
  Na  Na22  1  0.50997794  0.55155100  0.52473628  1
  Na  Na23  1  0.50866326  0.48797958  0.76784655  1
  Na  Na24  1  0.14171297  0.75249516  0.99205197  1
  Na  Na25  1  0.25387401  0.77825888  0.29226093  1
  Na  Na26  1  0.26899610  0.68745074  0.47937654  1
  Na  Na27  1  0.25856704  0.75814391  0.72528089  1
  Na  Na28  1  0.79434646  0.68666768  0.99927454  1
  Na  Na29  1  0.74269163  0.65550708  0.22842226  1
  Na  Na30  1  0.73388385  0.67878506  0.45839039  1
  Na  Na31  1  0.79368950  0.69376423  0.77117151  1
  Sn  Sn32  1  0.97127653  0.22487605  0.13283804  1
  Sn  Sn33  1  0.99696686  0.26377449  0.36023237  1
  Sn  Sn34  1  0.04417802  0.31841208  0.64137114  1
  Sn  Sn35  1  0.02709611  0.28385248  0.87879801  1
  Sn  Sn36  1  0.45416428  0.23500075  0.12619606  1
  Sn  Sn37  1  0.49477386  0.22078747  0.37399108  1
  Sn  Sn38  1  0.44286181  0.31344417  0.62664328  1
  Sn  Sn39  1  0.50053276  0.23485074  0.84917519  1
  Sn  Sn40  1  0.22600960  0.48671080  0.12638530  1
  Sn  Sn41  1  0.24655525  0.49444830  0.38929857  1
  Sn  Sn42  1  0.26899514  0.53511626  0.63138025  1
  Sn  Sn43  1  0.27088209  0.51961424  0.87093150  1
  Sn  Sn44  1  0.01361897  0.72096228  0.14008930  1
  Sn  Sn45  1  0.00674011  0.73997829  0.38785042  1
  Sn  Sn46  1  0.97284367  0.74708795  0.60721454  1
  Sn  Sn47  1  0.01323100  0.74210806  0.84623903  1
  Sn  Sn48  1  0.74793565  0.49565470  0.10575766  1
  Sn  Sn49  1  0.73778964  0.48481791  0.36111482  1
  Sn  Sn50  1  0.73599934  0.49987203  0.59491247  1
  Sn  Sn51  1  0.74077117  0.49103989  0.85861947  1
  Sn  Sn52  1  0.48593407  0.73741641  0.14552313  1
  Sn  Sn53  1  0.49805439  0.73264259  0.38183387  1
  Sn  Sn54  1  0.51414043  0.82453041  0.62381969  1
  Sn  Sn55  1  0.53595072  0.76090658  0.90518328  1
  Sn  Sn56  1  0.24935371  0.98970296  0.12341116  1
  Sn  Sn57  1  0.22817601  0.98122583  0.39527729  1
  Sn  Sn58  1  0.22549001  0.04504319  0.63913657  1
  Sn  Sn59  1  0.24325691  0.98948489  0.87760083  1
  Sn  Sn60  1  0.70831631  0.01139533  0.15279633  1
  Sn  Sn61  1  0.72886078  0.99172187  0.38840917  1
  Sn  Sn62  1  0.79638726  0.05329884  0.61402902  1
  Sn  Sn63  1  0.73329400  0.00567893  0.91354312  1
  Br  Br64  1  0.00039675  0.23788755  0.99272008  1
  Br  Br65  1  0.90412911  0.23841654  0.24286160  1
  Br  Br66  1  0.07113451  0.30910231  0.46735297  1
  Br  Br67  1  0.07662154  0.37087934  0.75054375  1
  Br  Br68  1  0.45975416  0.19898963  0.96285234  1
  Br  Br69  1  0.45070967  0.33635497  0.21994193  1
  Br  Br70  1  0.50756523  0.20473663  0.48982419  1
  Br  Br71  1  0.53748796  0.32502028  0.72273103  1
  Br  Br72  1  0.31812973  0.47176813  0.98400447  1
  Br  Br73  1  0.18811751  0.52712510  0.23738306  1
  Br  Br74  1  0.32765064  0.50482086  0.49279537  1
  Br  Br75  1  0.23432308  0.58175011  0.74265467  1
  Br  Br76  1  0.95853496  0.74677462  0.02323466  1
  Br  Br77  1  0.07833550  0.73965468  0.27301270  1
  Br  Br78  1  0.89973162  0.73652949  0.50066590  1
  Br  Br79  1  0.07039069  0.77319359  0.73779562  1
  Br  Br80  1  0.82330986  0.51240719  0.99647911  1
  Br  Br81  1  0.69327490  0.48137192  0.24191677  1
  Br  Br82  1  0.81942958  0.50151024  0.48973707  1
  Br  Br83  1  0.68365158  0.54623109  0.75167130  1
  Br  Br84  1  0.50003704  0.67785419  0.00066920  1
  Br  Br85  1  0.55880050  0.67846740  0.24379313  1
  Br  Br86  1  0.44805490  0.71854352  0.49477390  1
  Br  Br87  1  0.43827682  0.79967556  0.72664456  1
  Br  Br88  1  0.26924154  0.04317944  0.01503796  1
  Br  Br89  1  0.19288421  0.94879787  0.28308778  1
  Br  Br90  1  0.21302403  0.13295784  0.53730568  1
  Br  Br91  1  0.24996322  0.93747641  0.76066447  1
  Br  Br92  1  0.67755328  0.09070580  0.00612527  1
  Br  Br93  1  0.78494496  0.00826863  0.25840909  1
  Br  Br94  1  0.67556294  0.02376775  0.50311369  1
  Br  Br95  1  0.87455111  0.08777291  0.71833104  1
  Br  Br96  1  0.11069328  0.07582489  0.14754226  1
  Br  Br97  1  0.09117841  0.08419541  0.39792243  1
  Br  Br98  1  0.13959932  0.15051921  0.70595466  1
  Br  Br99  1  0.18004126  0.21700731  0.88556020  1
  Br  Br100  1  0.64081489  0.15835745  0.17755208  1
  Br  Br101  1  0.58656702  0.06050009  0.34424366  1
  Br  Br102  1  0.69125106  0.18478674  0.62447441  1
  Br  Br103  1  0.61039513  0.06254433  0.84511135  1
  Br  Br104  1  0.30333781  0.28544148  0.09387571  1
  Br  Br105  1  0.35832468  0.33537418  0.37897737  1
  Br  Br106  1  0.29290661  0.34502924  0.67352524  1
  Br  Br107  1  0.37091069  0.34400111  0.84409640  1
  Br  Br108  1  0.14043867  0.60848946  0.07317684  1
  Br  Br109  1  0.11868114  0.58117961  0.44167585  1
  Br  Br110  1  0.25095555  0.70084555  0.60335634  1
  Br  Br111  1  0.20330175  0.66910366  0.89348119  1
  Br  Br112  1  0.84123288  0.31867669  0.09148580  1
  Br  Br113  1  0.94906757  0.42673429  0.34779425  1
  Br  Br114  1  0.88292911  0.36026177  0.65700075  1
  Br  Br115  1  0.81219631  0.34939871  0.82486410  1
  Br  Br116  1  0.70212549  0.66083354  0.10440039  1
  Br  Br117  1  0.60080485  0.56369139  0.40413136  1
  Br  Br118  1  0.65631646  0.64162272  0.56956950  1
  Br  Br119  1  0.69622765  0.69745607  0.89342081  1
  Br  Br120  1  0.36174454  0.82595931  0.19562950  1
  Br  Br121  1  0.39250157  0.87062358  0.36316493  1
  Br  Br122  1  0.40125620  0.93139103  0.58563440  1
  Br  Br123  1  0.37139993  0.89237560  0.90234720  1
  Br  Br124  1  0.91708644  0.85669853  0.16937243  1
  Br  Br125  1  0.93270979  0.88573575  0.36974858  1
  Br  Br126  1  0.86541483  0.86034864  0.64115793  1
  Br  Br127  1  0.88209324  0.83940963  0.81909974  1
  Br  Br128  1  0.88290037  0.08602206  0.09786707  1
  Br  Br129  1  0.80617123  0.14312433  0.39652152  1
  Br  Br130  1  0.90122983  0.14957387  0.55338431  1
  Br  Br131  1  0.84103048  0.12541966  0.88758449  1
  Br  Br132  1  0.38225033  0.11489242  0.19344468  1
  Br  Br133  1  0.32939329  0.11130433  0.35943126  1
  Br  Br134  1  0.41671977  0.14904761  0.64829382  1
  Br  Br135  1  0.38766557  0.11280678  0.81506733  1
  Br  Br136  1  0.07313862  0.39669542  0.12741074  1
  Br  Br137  1  0.14184622  0.29449552  0.30605849  1
  Br  Br138  1  0.06448269  0.47698554  0.60297371  1
  Br  Br139  1  0.07117999  0.43191816  0.91768325  1
  Br  Br140  1  0.90723840  0.59354473  0.17682834  1
  Br  Br141  1  0.80958489  0.63775444  0.34466373  1
  Br  Br142  1  0.87349564  0.63207676  0.65722618  1
  Br  Br143  1  0.92119090  0.59577569  0.82213336  1
  Br  Br144  1  0.59108757  0.44859404  0.07552412  1
  Br  Br145  1  0.64241766  0.30629597  0.36902390  1
  Br  Br146  1  0.61507586  0.40671626  0.54889093  1
  Br  Br147  1  0.59197870  0.41656015  0.88360402  1
  Br  Br148  1  0.39358375  0.59403991  0.14425252  1
  Br  Br149  1  0.32006680  0.63888381  0.35746352  1
  Br  Br150  1  0.43895847  0.53368283  0.64600786  1
  Br  Br151  1  0.42361254  0.58693528  0.85297234  1
  Br  Br152  1  0.14671721  0.85598060  0.09344960  1
  Br  Br153  1  0.14630155  0.81387549  0.43285581  1
  Br  Br154  1  0.08376262  0.95966579  0.61364963  1
  Br  Br155  1  0.11274942  0.88782357  0.90591243  1
  Br  Br156  1  0.57812198  0.91429242  0.18527741  1
  Br  Br157  1  0.63733485  0.81619225  0.41250626  1
  Br  Br158  1  0.59394640  0.95571120  0.67185128  1
  Br  Br159  1  0.58909067  0.88625156  0.97214283  1
