# generated using pymatgen
data_NaSnCl3
_symmetry_space_group_name_H-M   'P 1'
_cell_length_a   15.65816549
_cell_length_b   15.65816549
_cell_length_c   22.14399000
_cell_angle_alpha   90.00000000
_cell_angle_beta   90.00000000
_cell_angle_gamma   90.00000000
_symmetry_Int_Tables_number   1
_chemical_formula_structural   NaSnCl3
_chemical_formula_sum   'Na32 Sn32 Cl96'
_cell_volume   5429.22242564
_cell_formula_units_Z   32
loop_
 _symmetry_equiv_pos_site_id
 _symmetry_equiv_pos_as_xyz
  1  'x, y, z'
loop_
 _atom_site_type_symbol
 _atom_site_label
 _atom_site_symmetry_multiplicity
 _atom_site_fract_x
 _atom_site_fract_y
 _atom_site_fract_z
 _atom_site_occupancy
  Na  Na0  1  0.04729405  0.00768228  0.94870096  1
  Na  Na1  1  0.91274432  0.98121282  0.27087087  1
  Na  Na2  1  -0.00258555  0.00500732  0.52646538  1
  Na  Na3  1  0.06183004  0.96425073  0.76808509  1
  Na  Na4  1  0.52964794  0.01535614  0.00246533  1
  Na  Na5  1  0.44121147  0.96288143  0.24157795  1
  Na  Na6  1  0.53524217  0.05622402  0.56057497  1
  Na  Na7  1  0.57323203  0.05020593  0.75768737  1
  Na  Na8  1  0.25848122  0.26522674  0.98146605  1
  Na  Na9  1  0.16559739  0.31290187  0.24692793  1
  Na  Na10  1  0.29515191  0.17532986  0.51069610  1
  Na  Na11  1  0.31190518  0.18822950  0.70784712  1
  Na  Na12  1  0.01066288  0.46524032  0.98362132  1
  Na  Na13  1  0.02359078  0.54947109  0.17599350  1
  Na  Na14  1  0.00396057  0.57192844  0.51447009  1
  Na  Na15  1  0.01163143  0.48546559  0.74223316  1
  Na  Na16  1  0.72611182  0.28944652  0.97315849  1
  Na  Na17  1  0.70771917  0.19134515  0.29389571  1
  Na  Na18  1  0.78250889  0.24941373  0.48480178  1
  Na  Na19  1  0.77727554  0.22915501  0.72298042  1
  Na  Na20  1  0.58039262  0.49645137  0.03481109  1
  Na  Na21  1  0.47276699  0.45637297  0.26635630  1
  Na  Na22  1  0.53665650  0.54876948  0.44089658  1
  Na  Na23  1  0.38757336  0.50262256  0.74958735  1
  Na  Na24  1  0.21708564  0.79783402  0.98503142  1
  Na  Na25  1  0.26091320  0.77947153  0.21907956  1
  Na  Na26  1  0.23641420  0.72608347  0.49670419  1
  Na  Na27  1  0.22524639  0.69836117  0.74824839  1
  Na  Na28  1  0.75184632  0.75321937  0.04406527  1
  Na  Na29  1  0.81902546  0.73502317  0.23586934  1
  Na  Na30  1  0.80246577  0.72022096  0.46436693  1
  Na  Na31  1  0.74038246  0.69884956  0.75945555  1
  Sn  Sn32  1  0.01735542  0.20768210  0.13873052  1
  Sn  Sn33  1  0.97952900  0.20905636  0.37872795  1
  Sn  Sn34  1  0.97183977  0.26147165  0.62598003  1
  Sn  Sn35  1  0.97676690  0.23516361  0.88247797  1
  Sn  Sn36  1  0.57048229  0.23691484  0.13695570  1
  Sn  Sn37  1  0.50252996  0.23148954  0.38443160  1
  Sn  Sn38  1  0.56337758  0.33808141  0.64734466  1
  Sn  Sn39  1  0.46091315  0.25296988  0.86222066  1
  Sn  Sn40  1  0.28252253  0.47487273  0.12788605  1
  Sn  Sn41  1  0.25563601  0.44731510  0.41023158  1
  Sn  Sn42  1  0.21101150  0.45554917  0.61699857  1
  Sn  Sn43  1  0.20739692  0.51292223  0.88386111  1
  Sn  Sn44  1  0.02781959  0.79780407  0.10628589  1
  Sn  Sn45  1  0.01244408  0.80283914  0.37199413  1
  Sn  Sn46  1  0.95496263  0.78314790  0.61705771  1
  Sn  Sn47  1  0.00313037  0.76024524  0.86845688  1
  Sn  Sn48  1  0.79480309  0.53211403  0.13722640  1
  Sn  Sn49  1  0.76104173  0.50310570  0.38422540  1
  Sn  Sn50  1  0.76145518  0.52074840  0.63443628  1
  Sn  Sn51  1  0.74749606  0.51644920  0.89543352  1
  Sn  Sn52  1  0.50438013  0.69907485  0.12331545  1
  Sn  Sn53  1  0.43253062  0.76048145  0.36285775  1
  Sn  Sn54  1  0.43899876  0.68473146  0.61504020  1
  Sn  Sn55  1  0.45578849  0.67872963  0.87110473  1
  Sn  Sn56  1  0.29671286  0.97646574  0.10109925  1
  Sn  Sn57  1  0.24042448  0.96658920  0.37241009  1
  Sn  Sn58  1  0.23098185  0.97915467  0.61533794  1
  Sn  Sn59  1  0.28483367  0.03758474  0.89923691  1
  Sn  Sn60  1  0.78310348  0.98716545  0.09861911  1
  Sn  Sn61  1  0.69989457  0.98282756  0.42813241  1
  Sn  Sn62  1  0.75407558  0.97845375  0.65006049  1
  Sn  Sn63  1  0.74356272  0.05880824  0.90148788  1
  Cl  Cl64  1  0.08761999  0.31179989  0.95036235  1
  Cl  Cl65  1  0.98707483  0.27182793  0.24338710  1
  Cl  Cl66  1  0.93985663  0.16223384  0.49065417  1
  Cl  Cl67  1  0.94191712  0.32193975  0.73467076  1
  Cl  Cl68  1  0.42535851  0.16640445  0.95950036  1
  Cl  Cl69  1  0.57280571  0.31271828  0.24036942  1
  Cl  Cl70  1  0.47481957  0.20776241  0.49713044  1
  Cl  Cl71  1  0.43808903  0.33343378  0.72347026  1
  Cl  Cl72  1  0.18389029  0.51486551  0.99820462  1
  Cl  Cl73  1  0.31596678  0.40729766  0.23428866  1
  Cl  Cl74  1  0.24750100  0.34772736  0.50331991  1
  Cl  Cl75  1  0.20608839  0.52312714  0.73305905  1
  Cl  Cl76  1  0.05918335  0.71433090  0.01060448  1
  Cl  Cl77  1  0.02496024  0.84572139  0.26157443  1
  Cl  Cl78  1  0.86510133  0.86689321  0.53550327  1
  Cl  Cl79  1  0.06285434  0.76889678  0.75555362  1
  Cl  Cl80  1  0.74105895  0.58258017  0.00338962  1
  Cl  Cl81  1  0.86352590  0.55697377  0.24504769  1
  Cl  Cl82  1  0.69300400  0.47447065  0.48832397  1
  Cl  Cl83  1  0.85085759  0.56323234  0.72787795  1
  Cl  Cl84  1  0.52024426  0.65785592  0.01033274  1
  Cl  Cl85  1  0.44514257  0.78819530  0.24662423  1
  Cl  Cl86  1  0.41693120  0.66113265  0.49729605  1
  Cl  Cl87  1  0.40543869  0.68427996  0.75625896  1
  Cl  Cl88  1  0.20048879  0.10072156  0.98832489  1
  Cl  Cl89  1  0.26830212  0.95434329  0.21773018  1
  Cl  Cl90  1  0.25602935  0.90532261  0.48163987  1
  Cl  Cl91  1  0.20795452  0.04309129  0.72284807  1
  Cl  Cl92  1  0.67907754  0.12389116  0.00288297  1
  Cl  Cl93  1  0.78815524  0.90041361  0.19999051  1
  Cl  Cl94  1  0.69665607  0.09866616  0.51052948  1
  Cl  Cl95  1  0.74734026  0.04777431  0.75668008  1
  Cl  Cl96  1  0.16683637  0.17132468  0.17205542  1
  Cl  Cl97  1  0.25304317  0.12567972  0.39700276  1
  Cl  Cl98  1  0.14995551  0.09739194  0.56118633  1
  Cl  Cl99  1  0.07943486  0.11832715  0.84624603  1
  Cl  Cl100  1  0.69639612  0.15020034  0.17482653  1
  Cl  Cl101  1  0.61049859  0.05994338  0.34609565  1
  Cl  Cl102  1  0.60372653  0.18189102  0.66491076  1
  Cl  Cl103  1  0.72860069  0.21092036  0.85861042  1
  Cl  Cl104  1  0.34316782  0.34633744  0.07326922  1
  Cl  Cl105  1  0.46432819  0.39354338  0.39080947  1
  Cl  Cl106  1  0.19758447  0.30887666  0.66470081  1
  Cl  Cl107  1  0.30582146  0.29931663  0.86198114  1
  Cl  Cl108  1  0.13405284  0.68233136  0.16681048  1
  Cl  Cl109  1  0.16948717  0.56067655  0.47102630  1
  Cl  Cl110  1  0.05663135  0.74093066  0.52434448  1
  Cl  Cl111  1  0.23607986  0.67773873  0.87970798  1
  Cl  Cl112  1  0.92678525  0.45361756  0.09758508  1
  Cl  Cl113  1  0.88112916  0.33483973  0.39745239  1
  Cl  Cl114  1  0.81599273  0.30709680  0.59974652  1
  Cl  Cl115  1  0.85475483  0.39987358  0.93755556  1
  Cl  Cl116  1  0.66582209  0.69040747  0.15165511  1
  Cl  Cl117  1  0.67555417  0.64735635  0.39128965  1
  Cl  Cl118  1  0.65047166  0.63366009  0.66044368  1
  Cl  Cl119  1  0.61223618  0.64900793  0.84225165  1
  Cl  Cl120  1  0.31901535  0.80954970  0.09625163  1
  Cl  Cl121  1  0.26862426  0.74945039  0.34976151  1
  Cl  Cl122  1  0.27658718  0.71763658  0.62216417  1
  Cl  Cl123  1  0.37166786  0.93490773  0.96822811  1
  Cl  Cl124  1  0.87905123  0.87958432  0.03665691  1
  Cl  Cl125  1  0.84868754  0.80799755  0.35636160  1
  Cl  Cl126  1  0.80581080  0.83913308  0.69963858  1
  Cl  Cl127  1  0.94883174  0.91604645  0.85957200  1
  Cl  Cl128  1  0.95568761  0.05920778  0.16373201  1
  Cl  Cl129  1  0.85183389  0.11475128  0.33885038  1
  Cl  Cl130  1  0.91285504  0.12064652  0.66434917  1
  Cl  Cl131  1  0.92438485  0.13702813  0.96897983  1
  Cl  Cl132  1  0.46100182  0.01734729  0.12614680  1
  Cl  Cl133  1  0.40365748  0.95865094  0.36049058  1
  Cl  Cl134  1  0.36704211  0.08572715  0.60889744  1
  Cl  Cl135  1  0.42467751  0.12397371  0.79281871  1
  Cl  Cl136  1  0.13130513  0.41476612  0.14683087  1
  Cl  Cl137  1  0.12870605  0.37434092  0.36084406  1
  Cl  Cl138  1  0.04392831  0.47473925  0.61535153  1
  Cl  Cl139  1  0.04268786  0.53474056  0.86424302  1
  Cl  Cl140  1  0.87911796  0.67468461  0.11877172  1
  Cl  Cl141  1  0.89711827  0.58278486  0.41588715  1
  Cl  Cl142  1  0.85151495  0.63427073  0.56940282  1
  Cl  Cl143  1  0.84874434  0.70469586  0.86046184  1
  Cl  Cl144  1  0.66466423  0.35272080  0.08656541  1
  Cl  Cl145  1  0.65849087  0.27814183  0.39535389  1
  Cl  Cl146  1  0.66950108  0.38396861  0.72743813  1
  Cl  Cl147  1  0.62218552  0.41806520  0.92727436  1
  Cl  Cl148  1  0.49259530  0.53493347  0.14667510  1
  Cl  Cl149  1  0.44840329  0.59808749  0.33692235  1
  Cl  Cl150  1  0.42099404  0.52369790  0.62840388  1
  Cl  Cl151  1  0.41910782  0.52051149  0.87109603  1
  Cl  Cl152  1  0.12255279  0.91821496  0.05599199  1
  Cl  Cl153  1  0.01722038  0.95985325  0.40237520  1
  Cl  Cl154  1  0.04228831  0.92756343  0.63478366  1
  Cl  Cl155  1  0.17624477  0.90917500  0.88799737  1
  Cl  Cl156  1  0.65326729  0.89775939  0.05556919  1
  Cl  Cl157  1  0.57353105  0.91613107  0.47975822  1
  Cl  Cl158  1  0.59092411  0.94656830  0.65802343  1
  Cl  Cl159  1  0.59057165  0.00599860  0.87955233  1
