# generated using pymatgen
data_NaZnF3
_symmetry_space_group_name_H-M   'P 1'
_cell_length_a   11.46322481
_cell_length_b   11.46322481
_cell_length_c   16.21144900
_cell_angle_alpha   90.00000000
_cell_angle_beta   90.00000000
_cell_angle_gamma   90.00000000
_symmetry_Int_Tables_number   1
_chemical_formula_structural   NaZnF3
_chemical_formula_sum   'Na32 Zn32 F96'
_cell_volume   2130.27393651
_cell_formula_units_Z   32
loop_
 _symmetry_equiv_pos_site_id
 _symmetry_equiv_pos_as_xyz
  1  'x, y, z'
loop_
 _atom_site_type_symbol
 _atom_site_label
 _atom_site_symmetry_multiplicity
 _atom_site_fract_x
 _atom_site_fract_y
 _atom_site_fract_z
 _atom_site_occupancy
  F  F0  1  0.97366413  0.20196564  0.99741880  1
  F  F1  1  0.02302096  0.29887224  0.24639501  1
  F  F2  1  0.01867971  0.20250743  0.49784446  1
  F  F3  1  0.00959723  0.29877858  0.74852557  1
  F  F4  1  0.47359687  0.20162245  0.99731099  1
  F  F5  1  0.52319702  0.29883793  0.24622053  1
  F  F6  1  0.51840546  0.20252476  0.49780739  1
  F  F7  1  0.50957066  0.29891452  0.74849982  1
  F  F8  1  0.22345127  0.54935536  0.99744260  1
  F  F9  1  0.27309848  0.45331286  0.24634817  1
  F  F10  1  0.26840732  0.54910241  0.49788210  1
  F  F11  1  0.25939599  0.45200943  0.74859426  1
  F  F12  1  0.97359798  0.70203536  0.99738042  1
  F  F13  1  0.02307032  0.79904099  0.24632277  1
  F  F14  1  0.01854082  0.70252161  0.49784568  1
  F  F15  1  0.00965895  0.79883405  0.74852533  1
  F  F16  1  0.72356245  0.54971576  0.99734386  1
  F  F17  1  0.77300881  0.45340530  0.24636191  1
  F  F18  1  0.76867518  0.54919444  0.49782074  1
  F  F19  1  0.75947375  0.45225608  0.74854140  1
  F  F20  1  0.47353052  0.70165781  0.99740734  1
  F  F21  1  0.52314101  0.79883365  0.24629488  1
  F  F22  1  0.51850675  0.70250824  0.49788966  1
  F  F23  1  0.50965961  0.79862156  0.74857823  1
  F  F24  1  0.22359496  0.04944049  0.99733125  1
  F  F25  1  0.27311178  0.95331845  0.24635877  1
  F  F26  1  0.26866956  0.04910372  0.49785911  1
  F  F27  1  0.25962604  0.95190862  0.74844272  1
  F  F28  1  0.72367372  0.04969013  0.99731637  1
  F  F29  1  0.77298671  0.95332132  0.24636000  1
  F  F30  1  0.76837949  0.04928110  0.49784820  1
  F  F31  1  0.75971526  0.95224911  0.74854370  1
  F  F32  1  0.08755033  0.09428919  0.14413333  1
  F  F33  1  0.12180163  0.10827762  0.34344446  1
  F  F34  1  0.15857774  0.15484784  0.64296503  1
  F  F35  1  0.09851299  0.10377253  0.84490069  1
  F  F36  1  0.58742612  0.09417252  0.14419869  1
  F  F37  1  0.62175283  0.10833924  0.34344472  1
  F  F38  1  0.65849571  0.15495847  0.64297953  1
  F  F39  1  0.59853133  0.10386904  0.84479304  1
  F  F40  1  0.38562262  0.39578180  0.09324015  1
  F  F41  1  0.41736981  0.40503978  0.39192379  1
  F  F42  1  0.36090819  0.35556870  0.59439380  1
  F  F43  1  0.39918569  0.40487975  0.89474468  1
  F  F44  1  0.08727422  0.59419358  0.14418582  1
  F  F45  1  0.12177299  0.60839802  0.34348877  1
  F  F46  1  0.15840942  0.65482930  0.64300027  1
  F  F47  1  0.09826311  0.60369111  0.84496097  1
  F  F48  1  0.88555249  0.39605109  0.09326940  1
  F  F49  1  0.91741318  0.40513809  0.39187946  1
  F  F50  1  0.86087406  0.35559686  0.59437874  1
  F  F51  1  0.89910140  0.40498661  0.89461985  1
  F  F52  1  0.58733981  0.59413383  0.14423521  1
  F  F53  1  0.62180812  0.60836535  0.34345590  1
  F  F54  1  0.65847703  0.65474830  0.64297872  1
  F  F55  1  0.59829654  0.60380748  0.84504931  1
  F  F56  1  0.38572390  0.89576232  0.09325791  1
  F  F57  1  0.41742002  0.90501871  0.39197631  1
  F  F58  1  0.36103471  0.85551438  0.59436933  1
  F  F59  1  0.39941546  0.90503028  0.89464848  1
  F  F60  1  0.88561705  0.89610468  0.09332080  1
  F  F61  1  0.91732673  0.90505798  0.39199592  1
  F  F62  1  0.86097601  0.85563856  0.59433946  1
  F  F63  1  0.89936536  0.90518500  0.89470223  1
  F  F64  1  0.83756022  0.15746911  0.14430950  1
  F  F65  1  0.87174877  0.14403912  0.34347120  1
  F  F66  1  0.90863945  0.09603458  0.64293093  1
  F  F67  1  0.84845735  0.14726134  0.84498417  1
  F  F68  1  0.33753087  0.15735757  0.14412629  1
  F  F69  1  0.37168451  0.14406170  0.34341261  1
  F  F70  1  0.40861894  0.09598929  0.64290050  1
  F  F71  1  0.34859014  0.14676367  0.84472779  1
  F  F72  1  0.13558695  0.35568680  0.09342213  1
  F  F73  1  0.16735634  0.34721935  0.39201131  1
  F  F74  1  0.11085889  0.39551055  0.59436615  1
  F  F75  1  0.14940098  0.34557811  0.89473243  1
  F  F76  1  0.83739439  0.65761043  0.14415983  1
  F  F77  1  0.87175522  0.64405028  0.34344651  1
  F  F78  1  0.90848048  0.59611844  0.64296289  1
  F  F79  1  0.84835578  0.64719690  0.84494329  1
  F  F80  1  0.63565480  0.35572726  0.09311924  1
  F  F81  1  0.66733917  0.34713241  0.39194297  1
  F  F82  1  0.61094931  0.39550351  0.59422150  1
  F  F83  1  0.64928116  0.34589768  0.89465665  1
  F  F84  1  0.33731128  0.65742712  0.14418540  1
  F  F85  1  0.37169728  0.64404680  0.34349082  1
  F  F86  1  0.40837466  0.59600851  0.64306043  1
  F  F87  1  0.34834889  0.64688206  0.84499599  1
  F  F88  1  0.13563208  0.85571230  0.09325665  1
  F  F89  1  0.16736272  0.84716723  0.39205290  1
  F  F90  1  0.11100782  0.89542773  0.59433894  1
  F  F91  1  0.14957137  0.84554934  0.89463063  1
  F  F92  1  0.63560375  0.85576771  0.09317694  1
  F  F93  1  0.66726495  0.84719759  0.39205966  1
  F  F94  1  0.61101434  0.89547417  0.59440894  1
  F  F95  1  0.64937297  0.84584194  0.89472628  1
  Na  Na96  1  0.01676207  0.99823014  0.01066950  1
  Na  Na97  1  0.98552278  0.00379695  0.26025040  1
  Na  Na98  1  0.97405456  0.00097638  0.51424445  1
  Na  Na99  1  0.96433662  0.99934450  0.76442166  1
  Na  Na100  1  0.51665156  0.99763191  0.01005182  1
  Na  Na101  1  0.48555227  0.00359066  0.26017029  1
  Na  Na102  1  0.47413016  0.00080614  0.51423755  1
  Na  Na103  1  0.46451364  0.99935001  0.76447683  1
  Na  Na104  1  0.26677353  0.25310432  0.01063705  1
  Na  Na105  1  0.23525096  0.24879252  0.26077791  1
  Na  Na106  1  0.22404347  0.25011314  0.51416958  1
  Na  Na107  1  0.21436066  0.25114359  0.76474136  1
  Na  Na108  1  0.01664901  0.49846164  0.01086868  1
  Na  Na109  1  0.98565335  0.50365642  0.26059300  1
  Na  Na110  1  0.97407774  0.50112044  0.51426718  1
  Na  Na111  1  0.96426781  0.49940350  0.76445845  1
  Na  Na112  1  0.76669818  0.25402066  0.00978635  1
  Na  Na113  1  0.73564062  0.24889863  0.26063832  1
  Na  Na114  1  0.72328440  0.25047725  0.51438743  1
  Na  Na115  1  0.71432714  0.25147515  0.76472856  1
  Na  Na116  1  0.51661602  0.49771727  0.01021851  1
  Na  Na117  1  0.48578690  0.50353702  0.26025199  1
  Na  Na118  1  0.47364193  0.50103206  0.51432227  1
  Na  Na119  1  0.46434859  0.49935944  0.76458236  1
  Na  Na120  1  0.26645655  0.75305023  0.01041820  1
  Na  Na121  1  0.23545476  0.74889347  0.26063909  1
  Na  Na122  1  0.22397448  0.75021736  0.51429190  1
  Na  Na123  1  0.21439981  0.75119501  0.76467798  1
  Na  Na124  1  0.76653987  0.75377739  0.00997412  1
  Na  Na125  1  0.73543186  0.74897201  0.26061198  1
  Na  Na126  1  0.72392014  0.75014835  0.51422377  1
  Na  Na127  1  0.71428087  0.75147344  0.76453043  1
  Zn  Zn128  1  0.99383140  0.25070702  0.12495348  1
  Zn  Zn129  1  0.00962444  0.25163315  0.37407143  1
  Zn  Zn130  1  0.00029360  0.25013089  0.62469717  1
  Zn  Zn131  1  0.99331218  0.25005113  0.87542526  1
  Zn  Zn132  1  0.49400209  0.25062926  0.12485325  1
  Zn  Zn133  1  0.50967850  0.25159009  0.37391554  1
  Zn  Zn134  1  0.50017308  0.25012678  0.62472100  1
  Zn  Zn135  1  0.49317923  0.24991118  0.87537456  1
  Zn  Zn136  1  0.24386741  0.50083227  0.12491733  1
  Zn  Zn137  1  0.25973491  0.50070835  0.37395595  1
  Zn  Zn138  1  0.25013416  0.50069211  0.62472729  1
  Zn  Zn139  1  0.24300744  0.50072916  0.87543197  1
  Zn  Zn140  1  0.99381647  0.75080225  0.12490754  1
  Zn  Zn141  1  0.00961684  0.75172591  0.37400677  1
  Zn  Zn142  1  0.00029258  0.75015369  0.62469931  1
  Zn  Zn143  1  0.99326871  0.75008049  0.87536852  1
  Zn  Zn144  1  0.74389202  0.50103970  0.12491087  1
  Zn  Zn145  1  0.75965391  0.50066482  0.37402630  1
  Zn  Zn146  1  0.75030498  0.50070208  0.62463092  1
  Zn  Zn147  1  0.74326794  0.50099290  0.87543833  1
  Zn  Zn148  1  0.49391631  0.75062186  0.12491156  1
  Zn  Zn149  1  0.50968036  0.75162288  0.37399662  1
  Zn  Zn150  1  0.50028702  0.75004080  0.62471097  1
  Zn  Zn151  1  0.49316713  0.74985840  0.87546075  1
  Zn  Zn152  1  0.24406147  0.00084946  0.12484340  1
  Zn  Zn153  1  0.25971631  0.00065707  0.37399514  1
  Zn  Zn154  1  0.25029263  0.00071468  0.62466950  1
  Zn  Zn155  1  0.24325191  0.00072718  0.87536792  1
  Zn  Zn156  1  0.74388741  0.00104496  0.12486822  1
  Zn  Zn157  1  0.75965694  0.00073244  0.37401280  1
  Zn  Zn158  1  0.75027677  0.00081756  0.62459652  1
  Zn  Zn159  1  0.74336730  0.00098449  0.87541054  1
