# generated using pymatgen
data_NaZnCl3
_symmetry_space_group_name_H-M   'P 1'
_cell_length_a   13.89512908
_cell_length_b   13.89512908
_cell_length_c   19.65068000
_cell_angle_alpha   90.00000000
_cell_angle_beta   90.00000000
_cell_angle_gamma   90.00000000
_symmetry_Int_Tables_number   1
_chemical_formula_structural   NaZnCl3
_chemical_formula_sum   'Na32 Zn32 Cl96'
_cell_volume   3794.04742108
_cell_formula_units_Z   32
loop_
 _symmetry_equiv_pos_site_id
 _symmetry_equiv_pos_as_xyz
  1  'x, y, z'
loop_
 _atom_site_type_symbol
 _atom_site_label
 _atom_site_symmetry_multiplicity
 _atom_site_fract_x
 _atom_site_fract_y
 _atom_site_fract_z
 _atom_site_occupancy
  Cl  Cl0  1  0.87244980  0.23962316  0.01586066  1
  Cl  Cl1  1  0.99009168  0.19114229  0.22957372  1
  Cl  Cl2  1  0.02535814  0.16869021  0.41476206  1
  Cl  Cl3  1  0.08549001  0.32514826  0.72556917  1
  Cl  Cl4  1  0.52997149  0.22653030  0.06176814  1
  Cl  Cl5  1  0.50013571  0.28404147  0.26085780  1
  Cl  Cl6  1  0.61302854  0.31934509  0.58457690  1
  Cl  Cl7  1  0.48408290  0.23533176  0.75584028  1
  Cl  Cl8  1  0.28786780  0.50027750  0.98954097  1
  Cl  Cl9  1  0.30468493  0.44003650  0.29159005  1
  Cl  Cl10  1  0.17686177  0.45703990  0.46101645  1
  Cl  Cl11  1  0.25657829  0.46326125  0.79657608  1
  Cl  Cl12  1  0.01315437  0.66153362  0.00971625  1
  Cl  Cl13  1  0.93068696  0.69515537  0.20861580  1
  Cl  Cl14  1  0.10860019  0.76880074  0.50135433  1
  Cl  Cl15  1  0.99551610  0.55118984  0.76780411  1
  Cl  Cl16  1  0.65551254  0.43130166  0.98312518  1
  Cl  Cl17  1  0.76724079  0.51447149  0.28052617  1
  Cl  Cl18  1  0.78429503  0.48810536  0.49264689  1
  Cl  Cl19  1  0.74874503  0.58380742  0.69178472  1
  Cl  Cl20  1  0.29115356  0.73767522  0.03915101  1
  Cl  Cl21  1  0.60868412  0.70958011  0.21512930  1
  Cl  Cl22  1  0.44766817  0.79694596  0.51763354  1
  Cl  Cl23  1  0.58088576  0.78021061  0.69985962  1
  Cl  Cl24  1  0.26608232  0.97934287  0.02631661  1
  Cl  Cl25  1  0.24035670  0.92506810  0.23543262  1
  Cl  Cl26  1  0.24580213  0.98489425  0.43175225  1
  Cl  Cl27  1  0.24060558  0.13644276  0.73895661  1
  Cl  Cl28  1  0.96481456  0.93115231  0.97078047  1
  Cl  Cl29  1  0.76608420  0.88948342  0.22511985  1
  Cl  Cl30  1  0.78869419  0.10007278  0.52564271  1
  Cl  Cl31  1  0.72963484  0.92497252  0.85226441  1
  Cl  Cl32  1  0.10871722  0.15485479  0.07172280  1
  Cl  Cl33  1  0.22343142  0.18795470  0.30681611  1
  Cl  Cl34  1  0.19280642  0.20854983  0.56402361  1
  Cl  Cl35  1  0.14789921  0.23068422  0.89618134  1
  Cl  Cl36  1  0.61797119  0.07588864  0.20016142  1
  Cl  Cl37  1  0.60594472  0.16039164  0.41922206  1
  Cl  Cl38  1  0.66440311  0.09964512  0.69946740  1
  Cl  Cl39  1  0.66184499  0.17654945  0.88641304  1
  Cl  Cl40  1  0.31041248  0.37042007  0.12551816  1
  Cl  Cl41  1  0.37593927  0.27819473  0.44129847  1
  Cl  Cl42  1  0.38316218  0.39322914  0.64011122  1
  Cl  Cl43  1  0.44038700  0.35918318  0.90681860  1
  Cl  Cl44  1  0.13803869  0.58259509  0.16197097  1
  Cl  Cl45  1  0.17926850  0.67203587  0.34160998  1
  Cl  Cl46  1  0.16053048  0.52977149  0.62062072  1
  Cl  Cl47  1  0.15316867  0.68783972  0.87026650  1
  Cl  Cl48  1  0.76187607  0.29181697  0.18217506  1
  Cl  Cl49  1  0.80789228  0.30402758  0.38279804  1
  Cl  Cl50  1  0.82987024  0.28852625  0.67699663  1
  Cl  Cl51  1  0.88641815  0.30728347  0.85360949  1
  Cl  Cl52  1  0.53666769  0.67286708  0.03133726  1
  Cl  Cl53  1  0.63438924  0.65414425  0.39008381  1
  Cl  Cl54  1  0.73749777  0.74951673  0.53927841  1
  Cl  Cl55  1  0.63651802  0.67530002  0.85921714  1
  Cl  Cl56  1  0.46195221  0.88589435  0.13927622  1
  Cl  Cl57  1  0.42341058  0.80615248  0.34056147  1
  Cl  Cl58  1  0.22320711  0.95360075  0.61499425  1
  Cl  Cl59  1  0.42290121  0.94982845  0.74425107  1
  Cl  Cl60  1  0.79366231  0.78150603  0.05907025  1
  Cl  Cl61  1  0.92115290  0.91939476  0.47477633  1
  Cl  Cl62  1  0.83804031  0.90535501  0.67311334  1
  Cl  Cl63  1  0.92412773  0.76932246  0.82705538  1
  Cl  Cl64  1  0.87298904  0.04930783  0.11569142  1
  Cl  Cl65  1  0.83288763  0.07492987  0.33161598  1
  Cl  Cl66  1  0.99178742  0.09650249  0.63349615  1
  Cl  Cl67  1  0.95513827  0.05475421  0.81693421  1
  Cl  Cl68  1  0.34559333  0.12368125  0.15536960  1
  Cl  Cl69  1  0.43755892  0.05000060  0.32516902  1
  Cl  Cl70  1  0.43729899  0.12010986  0.58819641  1
  Cl  Cl71  1  0.38782568  0.11430792  0.89221447  1
  Cl  Cl72  1  0.03269516  0.38028253  0.11164381  1
  Cl  Cl73  1  0.02338784  0.41731060  0.32150968  1
  Cl  Cl74  1  0.98347337  0.34399459  0.54334371  1
  Cl  Cl75  1  0.06455471  0.45796953  0.91867709  1
  Cl  Cl76  1  0.81781494  0.52990207  0.10540448  1
  Cl  Cl77  1  0.90944658  0.66815943  0.39420685  1
  Cl  Cl78  1  0.93630206  0.61723580  0.58702327  1
  Cl  Cl79  1  0.84451494  0.55136366  0.90173130  1
  Cl  Cl80  1  0.55623519  0.47123148  0.15937010  1
  Cl  Cl81  1  0.56712182  0.41820539  0.38931689  1
  Cl  Cl82  1  0.56086643  0.58515706  0.57497482  1
  Cl  Cl83  1  0.64258130  0.42914322  0.80036906  1
  Cl  Cl84  1  0.37325749  0.64168350  0.20141919  1
  Cl  Cl85  1  0.38673646  0.58253619  0.43925478  1
  Cl  Cl86  1  0.36839431  0.65500227  0.69075530  1
  Cl  Cl87  1  0.39927629  0.66132660  0.86583462  1
  Cl  Cl88  1  0.05706297  0.86612508  0.12099105  1
  Cl  Cl89  1  0.04674700  0.88336698  0.32257182  1
  Cl  Cl90  1  0.08688468  0.78083040  0.68890663  1
  Cl  Cl91  1  0.19356888  0.92130966  0.83519782  1
  Cl  Cl92  1  0.65349868  0.98501586  0.03531028  1
  Cl  Cl93  1  0.66441515  0.90333259  0.39834230  1
  Cl  Cl94  1  0.60299998  0.95044394  0.57035907  1
  Cl  Cl95  1  0.47991276  0.88534496  0.92765524  1
  Na  Na96  1  0.00837876  0.11649578  0.95230100  1
  Na  Na97  1  0.94267344  0.98560863  0.23497085  1
  Na  Na98  1  0.09114486  0.04696198  0.51597318  1
  Na  Na99  1  0.08708760  0.98876173  0.72500101  1
  Na  Na100  1  0.45660616  0.04344091  0.01171103  1
  Na  Na101  1  0.57340170  0.90160436  0.26833292  1
  Na  Na102  1  0.50263554  0.99332975  0.45506608  1
  Na  Na103  1  0.55881240  0.02891082  0.82339342  1
  Na  Na104  1  0.17418883  0.34578815  0.01416253  1
  Na  Na105  1  0.18002924  0.24801950  0.18383416  1
  Na  Na106  1  0.18547114  0.27022269  0.43337818  1
  Na  Na107  1  0.31137686  0.27751099  0.82217856  1
  Na  Na108  1  0.89786640  0.43124297  0.00283550  1
  Na  Na109  1  0.96257484  0.50498620  0.20576733  1
  Na  Na110  1  0.99604931  0.52225443  0.47140167  1
  Na  Na111  1  0.83689143  0.44096304  0.75884887  1
  Na  Na112  1  0.71497818  0.16473636  0.07669776  1
  Na  Na113  1  0.69230766  0.19687019  0.29561960  1
  Na  Na114  1  0.79483028  0.29573691  0.53552825  1
  Na  Na115  1  0.80379657  0.16447928  0.78444187  1
  Na  Na116  1  0.46975166  0.42278346  0.03631425  1
  Na  Na117  1  0.52276870  0.55280254  0.28595137  1
  Na  Na118  1  0.46741247  0.42061079  0.51614176  1
  Na  Na119  1  0.54900150  0.58876538  0.72097257  1
  Na  Na120  1  0.13755913  0.83186091  0.98622671  1
  Na  Na121  1  0.12038004  0.75498184  0.22618769  1
  Na  Na122  1  0.26958254  0.79200057  0.43046063  1
  Na  Na123  1  0.27880673  0.81747903  0.72178924  1
  Na  Na124  1  0.65830513  0.81587735  0.95778664  1
  Na  Na125  1  0.77603025  0.71913441  0.29644616  1
  Na  Na126  1  0.95064611  0.80764597  0.58563189  1
  Na  Na127  1  0.75304775  0.76579299  0.75810275  1
  Zn  Zn128  1  0.96819246  0.22503019  0.11067784  1
  Zn  Zn129  1  0.96384858  0.26896076  0.33703523  1
  Zn  Zn130  1  0.98831517  0.25966551  0.64132322  1
  Zn  Zn131  1  0.04538622  0.33329049  0.83899597  1
  Zn  Zn132  1  0.49962719  0.17919121  0.17076685  1
  Zn  Zn133  1  0.47135250  0.21056372  0.36494433  1
  Zn  Zn134  1  0.54721291  0.20772170  0.65009002  1
  Zn  Zn135  1  0.56805661  0.29830693  0.85453897  1
  Zn  Zn136  1  0.27399498  0.50677709  0.18370719  1
  Zn  Zn137  1  0.24744694  0.53543244  0.37648090  1
  Zn  Zn138  1  0.29577923  0.51147415  0.68346206  1
  Zn  Zn139  1  0.26599281  0.56780599  0.88852691  1
  Zn  Zn140  1  0.94761326  0.74730297  0.09855102  1
  Zn  Zn141  1  0.00655651  0.79398722  0.41303368  1
  Zn  Zn142  1  0.04959118  0.62433040  0.67159536  1
  Zn  Zn143  1  0.99679066  0.62809386  0.88301882  1
  Zn  Zn144  1  0.71386001  0.44588101  0.16718922  1
  Zn  Zn145  1  0.72287291  0.45198618  0.38401239  1
  Zn  Zn146  1  0.72785869  0.59333118  0.57654901  1
  Zn  Zn147  1  0.67711389  0.52992039  0.89683873  1
  Zn  Zn148  1  0.48887709  0.71742789  0.13749397  1
  Zn  Zn149  1  0.49195373  0.71137883  0.42006909  1
  Zn  Zn150  1  0.58684758  0.77968400  0.58641362  1
  Zn  Zn151  1  0.41018678  0.74739509  0.96497168  1
  Zn  Zn152  1  0.31027077  0.95936215  0.13341682  1
  Zn  Zn153  1  0.26969416  0.03594917  0.32410711  1
  Zn  Zn154  1  0.28135013  0.10597676  0.62531107  1
  Zn  Zn155  1  0.31586919  0.02201555  0.81310137  1
  Zn  Zn156  1  0.76130185  0.92738570  0.11297660  1
  Zn  Zn157  1  0.78757814  0.00065592  0.42702146  1
  Zn  Zn158  1  0.74197131  0.00591461  0.61656081  1
  Zn  Zn159  1  0.89310054  0.92063225  0.86955059  1
