# generated using pymatgen
data_LiPbF3
_symmetry_space_group_name_H-M   'P 1'
_cell_length_a   11.03530500
_cell_length_b   11.03530500
_cell_length_c   15.60627800
_cell_angle_alpha   90.00000000
_cell_angle_beta   90.00000000
_cell_angle_gamma   90.00000000
_symmetry_Int_Tables_number   1
_chemical_formula_structural   LiPbF3
_chemical_formula_sum   'Li32 Pb32 F96'
_cell_volume   1900.50064351
_cell_formula_units_Z   32
loop_
 _symmetry_equiv_pos_site_id
 _symmetry_equiv_pos_as_xyz
  1  'x, y, z'
loop_
 _atom_site_type_symbol
 _atom_site_label
 _atom_site_symmetry_multiplicity
 _atom_site_fract_x
 _atom_site_fract_y
 _atom_site_fract_z
 _atom_site_occupancy
  F  F0  1  0.00045759  0.21461205  0.00011003  1
  F  F1  1  -0.00116745  0.28520643  0.25000787  1
  F  F2  1  0.00060416  0.21469532  0.50003607  1
  F  F3  1  -0.00109440  0.28476548  0.75006745  1
  F  F4  1  0.46539603  0.25085568  0.00001340  1
  F  F5  1  0.53408345  0.24868377  0.25011947  1
  F  F6  1  0.46495495  0.25118750  0.49996237  1
  F  F7  1  0.53457220  0.24838954  0.75012609  1
  F  F8  1  0.28511633  0.49888205  0.00015344  1
  F  F9  1  0.21448861  0.50067292  0.25001847  1
  F  F10  1  0.28494019  0.49887951  0.50002859  1
  F  F11  1  0.21478400  0.50045481  0.75007585  1
  F  F12  1  0.96544223  0.75092730  -0.00002388  1
  F  F13  1  0.03404711  0.74877844  0.25009412  1
  F  F14  1  -0.03509832  0.75115148  0.49996181  1
  F  F15  1  0.03458022  0.74845278  0.75010803  1
  F  F16  1  0.74863188  0.53407884  -0.00003659  1
  F  F17  1  0.75095902  0.46553361  0.25008674  1
  F  F18  1  0.74846000  0.53452731  0.49997922  1
  F  F19  1  0.75106912  0.46482672  0.75010782  1
  F  F20  1  0.50045457  0.71454094  0.00011492  1
  F  F21  1  0.49894669  0.78516218  0.24999994  1
  F  F22  1  0.50062648  0.71470565  0.50003446  1
  F  F23  1  0.49891427  0.78477779  0.75005463  1
  F  F24  1  0.24868638  0.03412806  -0.00003686  1
  F  F25  1  0.25083049  -0.03444633  0.25008308  1
  F  F26  1  0.24839339  0.03453689  0.49996410  1
  F  F27  1  0.25100763  0.96485160  0.75008119  1
  F  F28  1  0.78510316  -0.00108628  0.00015801  1
  F  F29  1  0.71450032  0.00057917  0.25001474  1
  F  F30  1  0.78486586  -0.00109790  0.50004317  1
  F  F31  1  0.71473284  0.00043494  0.75008701  1
  F  F32  1  0.10896807  0.10913714  0.14296921  1
  F  F33  1  0.14033209  0.14108862  0.35701664  1
  F  F34  1  0.10903547  0.10897931  0.64308969  1
  F  F35  1  0.14088959  0.14063625  0.85712703  1
  F  F36  1  0.60902013  0.10892567  0.10714465  1
  F  F37  1  0.64056743  0.14092767  0.39300571  1
  F  F38  1  0.60904889  0.10892545  0.60701802  1
  F  F39  1  0.64098612  0.14032504  0.89307674  1
  F  F40  1  0.39052686  0.39059826  0.14306975  1
  F  F41  1  0.35858786  0.35930225  0.35701508  1
  F  F42  1  0.39051292  0.39034865  0.64310108  1
  F  F43  1  0.35886468  0.35852971  0.85717554  1
  F  F44  1  0.10906729  0.60903303  0.10707930  1
  F  F45  1  0.14061719  0.64098159  0.39299793  1
  F  F46  1  0.10907856  0.60894972  0.60704863  1
  F  F47  1  0.14104209  0.64038901  0.89306309  1
  F  F48  1  0.89059117  0.39056525  0.10707432  1
  F  F49  1  0.85867742  0.35906223  0.39301029  1
  F  F50  1  0.89050793  0.39040008  0.60697501  1
  F  F51  1  0.85913512  0.35852972  0.89305492  1
  F  F52  1  0.60894971  0.60903938  0.14298100  1
  F  F53  1  0.64038653  0.64105985  0.35701506  1
  F  F54  1  0.60906527  0.60891955  0.64308655  1
  F  F55  1  0.64087352  0.64056110  0.85713662  1
  F  F56  1  0.39056250  0.89053356  0.10709867  1
  F  F57  1  0.35865925  0.85905055  0.39296943  1
  F  F58  1  0.39046122  0.89033628  0.60696279  1
  F  F59  1  0.35908210  0.85848039  0.89299981  1
  F  F60  1  0.89056377  0.89068328  0.14304619  1
  F  F61  1  0.85855499  0.85929341  0.35705543  1
  F  F62  1  0.89046894  0.89037829  0.64312166  1
  F  F63  1  0.85884122  0.85853048  0.85716640  1
  F  F64  1  0.85724713  0.14236071  0.13879149  1
  F  F65  1  0.88708552  0.11255109  0.35643602  1
  F  F66  1  0.85735247  0.14207466  0.63862927  1
  F  F67  1  0.88782245  0.11159225  0.85650137  1
  F  F68  1  0.36192980  0.13769788  0.14308624  1
  F  F69  1  0.39239447  0.10721097  0.36199955  1
  F  F70  1  0.36214423  0.13727725  0.64322405  1
  F  F71  1  0.39299220  0.10647172  0.86208620  1
  F  F72  1  0.14229410  0.35735165  0.11139936  1
  F  F73  1  0.11167403  0.38791339  0.39364402  1
  F  F74  1  0.14221459  0.35724828  0.61153269  1
  F  F75  1  0.11234123  0.38719298  0.89366841  1
  F  F76  1  0.86193448  0.63772340  0.14299771  1
  F  F77  1  0.89246918  0.60715623  0.36200945  1
  F  F78  1  0.86215623  0.63731063  0.64323800  1
  F  F79  1  0.89300470  0.60653072  0.86210262  1
  F  F80  1  0.63765427  0.36193981  0.10704236  1
  F  F81  1  0.60667033  0.39300306  0.38790688  1
  F  F82  1  0.63750737  0.36195035  0.60678768  1
  F  F83  1  0.60704064  0.39242051  0.88811037  1
  F  F84  1  0.35731265  0.64228321  0.13881870  1
  F  F85  1  0.38713576  0.61254552  0.35640959  1
  F  F86  1  0.35739265  0.64207967  0.63859006  1
  F  F87  1  0.38785340  0.61157076  0.85647587  1
  F  F88  1  0.13761515  0.86200672  0.10697553  1
  F  F89  1  0.10658770  0.89306596  0.38791626  1
  F  F90  1  0.13745454  0.86200665  0.60679060  1
  F  F91  1  0.10702213  0.89247875  0.88808996  1
  F  F92  1  0.64234709  0.85726110  0.11138238  1
  F  F93  1  0.61164320  0.88793095  0.39368789  1
  F  F94  1  0.64219378  0.85723725  0.61155406  1
  F  F95  1  0.61229486  0.88711339  0.89370878  1
  Li  Li96  1  -0.00024150  0.24986763  0.12508008  1
  Li  Li97  1  -0.00054041  0.25016559  0.37497296  1
  Li  Li98  1  -0.00030395  0.24969274  0.62507591  1
  Li  Li99  1  0.00006137  0.24951588  0.87512542  1
  Li  Li100  1  0.49978024  0.24979791  0.12506413  1
  Li  Li101  1  0.49952687  0.25005792  0.37499632  1
  Li  Li102  1  0.49982521  0.24965973  0.62504851  1
  Li  Li103  1  0.49994764  0.24958371  0.87508134  1
  Li  Li104  1  0.24978144  0.49989091  0.12506099  1
  Li  Li105  1  0.24952838  0.50016550  0.37501276  1
  Li  Li106  1  0.24983897  0.49965830  0.62499627  1
  Li  Li107  1  0.25007960  0.49943444  0.87516640  1
  Li  Li108  1  -0.00019416  0.74983514  0.12500722  1
  Li  Li109  1  -0.00047873  0.75009629  0.37500381  1
  Li  Li110  1  -0.00019785  0.74971094  0.62499606  1
  Li  Li111  1  -0.00002921  0.74964864  0.87505696  1
  Li  Li112  1  0.74982280  0.49983725  0.12502774  1
  Li  Li113  1  0.74958154  0.50004813  0.37498142  1
  Li  Li114  1  0.74980792  0.49958289  0.62510366  1
  Li  Li115  1  0.74994507  0.49952121  0.87501451  1
  Li  Li116  1  0.49976128  0.74986162  0.12506568  1
  Li  Li117  1  0.49951482  0.75015606  0.37494387  1
  Li  Li118  1  0.49977942  0.74966967  0.62509002  1
  Li  Li119  1  0.50003329  0.74947113  0.87510492  1
  Li  Li120  1  0.24980066  -0.00014382  0.12502950  1
  Li  Li121  1  0.24956706  0.00006350  0.37496652  1
  Li  Li122  1  0.24977773  -0.00034917  0.62506649  1
  Li  Li123  1  0.24988971  -0.00044575  0.87500317  1
  Li  Li124  1  0.74978911  -0.00010913  0.12506328  1
  Li  Li125  1  0.74950162  0.00014031  0.37501460  1
  Li  Li126  1  0.74974419  -0.00032760  0.62500739  1
  Li  Li127  1  0.75001084  -0.00063098  0.87519796  1
  Pb  Pb128  1  0.01030165  0.98946492  0.01361585  1
  Pb  Pb129  1  0.01332704  0.98642582  0.26033100  1
  Pb  Pb130  1  0.01017714  -0.01063262  0.51363930  1
  Pb  Pb131  1  0.01416586  -0.01462453  0.76013023  1
  Pb  Pb132  1  0.48628899  0.01337795  -0.01022714  1
  Pb  Pb133  1  0.48937005  0.01035379  0.23653259  1
  Pb  Pb134  1  0.48534234  0.01425038  0.48996049  1
  Pb  Pb135  1  0.48955555  0.00999004  0.73647962  1
  Pb  Pb136  1  0.24017865  0.25955836  0.98636274  1
  Pb  Pb137  1  0.23544652  0.26433070  0.23939773  1
  Pb  Pb138  1  0.23920405  0.26023402  0.48600498  1
  Pb  Pb139  1  0.23550127  0.26401955  0.73945527  1
  Pb  Pb140  1  -0.01366331  0.51338072  -0.01027784  1
  Pb  Pb141  1  -0.01060282  0.51043284  0.23648965  1
  Pb  Pb142  1  0.98530341  0.51428707  0.48994022  1
  Pb  Pb143  1  -0.01047353  0.51001152  0.73641411  1
  Pb  Pb144  1  0.76426384  0.23547211  0.01068590  1
  Pb  Pb145  1  0.75942689  0.24037158  0.26370467  1
  Pb  Pb146  1  0.76435466  0.23539475  0.51051007  1
  Pb  Pb147  1  0.76025721  0.23912422  0.76408733  1
  Pb  Pb148  1  0.51032303  0.48944272  0.01363689  1
  Pb  Pb149  1  0.51328112  0.48646844  0.26029603  1
  Pb  Pb150  1  0.51026924  0.48931665  0.51366317  1
  Pb  Pb151  1  0.51413181  0.48532463  0.76015048  1
  Pb  Pb152  1  0.26432036  0.73548244  0.01070032  1
  Pb  Pb153  1  0.25939924  0.74030688  0.26373300  1
  Pb  Pb154  1  0.26437967  0.73544708  0.51057998  1
  Pb  Pb155  1  0.26020515  0.73917036  0.76406186  1
  Pb  Pb156  1  0.74025116  0.75946209  0.98632763  1
  Pb  Pb157  1  0.73546507  0.76436075  0.23937782  1
  Pb  Pb158  1  0.73918074  0.76023053  0.48594908  1
  Pb  Pb159  1  0.73550574  0.76400613  0.73947965  1
