# generated using pymatgen
data_RbBaI3
_symmetry_space_group_name_H-M   'P 1'
_cell_length_a   19.16893369
_cell_length_b   19.16893369
_cell_length_c   27.10896500
_cell_angle_alpha   90.00000000
_cell_angle_beta   90.00000000
_cell_angle_gamma   90.00000000
_symmetry_Int_Tables_number   1
_chemical_formula_structural   RbBaI3
_chemical_formula_sum   'Rb32 Ba32 I96'
_cell_volume   9961.13548082
_cell_formula_units_Z   32
loop_
 _symmetry_equiv_pos_site_id
 _symmetry_equiv_pos_as_xyz
  1  'x, y, z'
loop_
 _atom_site_type_symbol
 _atom_site_label
 _atom_site_symmetry_multiplicity
 _atom_site_fract_x
 _atom_site_fract_y
 _atom_site_fract_z
 _atom_site_occupancy
  Ba  Ba0  1  0.00431587  0.00701169  0.00366309  1
  Ba  Ba1  1  0.00506267  0.99638222  0.25118968  1
  Ba  Ba2  1  0.99289270  0.99228855  0.50150751  1
  Ba  Ba3  1  0.00026472  0.99689304  0.74835149  1
  Ba  Ba4  1  0.49381375  0.01027195  0.99761077  1
  Ba  Ba5  1  0.50342619  0.99529607  0.25161933  1
  Ba  Ba6  1  0.49850884  0.99625696  0.49676449  1
  Ba  Ba7  1  0.49955794  0.99310544  0.74844211  1
  Ba  Ba8  1  0.25329619  0.26341259  0.00602005  1
  Ba  Ba9  1  0.24748630  0.25001349  0.25616354  1
  Ba  Ba10  1  0.24360293  0.24837093  0.50179222  1
  Ba  Ba11  1  0.24768736  0.24590264  0.75126184  1
  Ba  Ba12  1  0.00304776  0.50382292  0.99699617  1
  Ba  Ba13  1  -0.00010162  0.50081890  0.24799110  1
  Ba  Ba14  1  0.00482750  0.50107231  0.50418978  1
  Ba  Ba15  1  0.99683950  0.49915398  0.75477215  1
  Ba  Ba16  1  0.75483856  0.25912173  0.99246562  1
  Ba  Ba17  1  0.75887301  0.25591892  0.24254137  1
  Ba  Ba18  1  0.74532348  0.25107075  0.49630453  1
  Ba  Ba19  1  0.74776076  0.24055447  0.74704203  1
  Ba  Ba20  1  0.50355012  0.51224844  0.00120772  1
  Ba  Ba21  1  0.51099241  0.50366922  0.24681914  1
  Ba  Ba22  1  0.50189560  0.49452713  0.50013890  1
  Ba  Ba23  1  0.50094972  0.48676727  0.74750980  1
  Ba  Ba24  1  0.25423161  0.75726839  0.00065978  1
  Ba  Ba25  1  0.25036765  0.74942250  0.24895350  1
  Ba  Ba26  1  0.25013440  0.74057172  0.49808552  1
  Ba  Ba27  1  0.25087160  0.74643087  0.74693924  1
  Ba  Ba28  1  0.75242655  0.75750338  0.99918070  1
  Ba  Ba29  1  0.75387261  0.74723873  0.24879023  1
  Ba  Ba30  1  0.74822341  0.74924365  0.50851384  1
  Ba  Ba31  1  0.74269290  0.74691520  0.75335905  1
  I  I32  1  0.15896519  0.10705866  0.98260268  1
  I  I33  1  0.10305800  0.14487016  0.28358017  1
  I  I34  1  0.12392658  0.11378852  0.46730913  1
  I  I35  1  0.09737585  0.14813185  0.78222663  1
  I  I36  1  0.64765181  0.11473134  0.01864021  1
  I  I37  1  0.61655162  0.13944541  0.22423503  1
  I  I38  1  0.63287889  0.11289399  0.53209429  1
  I  I39  1  0.61164489  0.12887817  0.71094026  1
  I  I40  1  0.35773526  0.40961678  0.03227592  1
  I  I41  1  0.40243905  0.35414216  0.24299274  1
  I  I42  1  0.36197854  0.38194226  0.53544502  1
  I  I43  1  0.39501325  0.34383037  0.71926556  1
  I  I44  1  0.14151401  0.61701236  0.03065874  1
  I  I45  1  0.10676999  0.64441895  0.21774178  1
  I  I46  1  0.15306340  0.59682423  0.53881798  1
  I  I47  1  0.09201623  0.65498211  0.74055554  1
  I  I48  1  0.85948580  0.40147295  0.95725075  1
  I  I49  1  0.92362715  0.33390104  0.25203355  1
  I  I50  1  0.84548452  0.40755957  0.48375926  1
  I  I51  1  0.88636405  0.35544714  0.76725388  1
  I  I52  1  0.63941743  0.62279200  0.96045617  1
  I  I53  1  0.58840576  0.66886952  0.26004471  1
  I  I54  1  0.66035744  0.58926376  0.48695131  1
  I  I55  1  0.60779551  0.62759196  0.78214137  1
  I  I56  1  0.33592123  0.92026711  0.97486839  1
  I  I57  1  0.41120844  0.83833746  0.26799094  1
  I  I58  1  0.36533904  0.87558323  0.45984033  1
  I  I59  1  0.41314481  0.82982294  0.76080739  1
  I  I60  1  0.84627376  0.91827387  0.02321378  1
  I  I61  1  0.91391532  0.83732137  0.24601023  1
  I  I62  1  0.85284102  0.89158252  0.54218379  1
  I  I63  1  0.90082961  0.84222748  0.73338624  1
  I  I64  1  0.91567697  0.16765682  0.00293624  1
  I  I65  1  0.85355716  0.09785104  0.22010115  1
  I  I66  1  0.89721396  0.14942472  0.51468378  1
  I  I67  1  0.86783317  0.11063107  0.70788768  1
  I  I68  1  0.41366938  0.17503899  0.99657613  1
  I  I69  1  0.37309112  0.11932350  0.27386358  1
  I  I70  1  0.37099206  0.12254828  0.47430366  1
  I  I71  1  0.34017900  0.08714851  0.76729777  1
  I  I72  1  0.10935508  0.36626653  0.04031444  1
  I  I73  1  0.15956428  0.40905548  0.23887289  1
  I  I74  1  0.09009909  0.34257652  0.52076984  1
  I  I75  1  0.15340016  0.40297487  0.73175624  1
  I  I76  1  0.91144232  0.66520600  0.97916038  1
  I  I77  1  0.83946116  0.58680084  0.26122357  1
  I  I78  1  0.90635798  0.65648075  0.49689419  1
  I  I79  1  0.85924489  0.61215558  0.79101521  1
  I  I80  1  0.61522688  0.37429109  0.96831664  1
  I  I81  1  0.66396090  0.40878687  0.25419035  1
  I  I82  1  0.58384427  0.33329984  0.47581180  1
  I  I83  1  0.62395372  0.36556512  0.78989922  1
  I  I84  1  0.41469229  0.67135290  0.00908311  1
  I  I85  1  0.35207006  0.59589944  0.21970652  1
  I  I86  1  0.40953615  0.65174908  0.51736922  1
  I  I87  1  0.34666058  0.58832891  0.73082477  1
  I  I88  1  0.10631480  0.85934533  0.02300792  1
  I  I89  1  0.14659241  0.89020082  0.28729365  1
  I  I90  1  0.10613714  0.85429370  0.46693740  1
  I  I91  1  0.15920032  0.90358038  0.76011757  1
  I  I92  1  0.61927863  0.88058899  0.02138965  1
  I  I93  1  0.66335019  0.90662372  0.23414673  1
  I  I94  1  0.59473411  0.84477483  0.51860866  1
  I  I95  1  0.63395593  0.87983081  0.70891028  1
  I  I96  1  0.04688333  0.03783893  0.12863589  1
  I  I97  1  0.94018270  0.00102406  0.37489383  1
  I  I98  1  0.05321961  0.01040050  0.62379916  1
  I  I99  1  0.99824819  0.96419092  0.87681147  1
  I  I100  1  0.45732772  0.01026382  0.12589839  1
  I  I101  1  0.55298441  0.03054809  0.37406946  1
  I  I102  1  0.44477867  0.98582569  0.62213307  1
  I  I103  1  0.54260428  0.00975397  0.87368725  1
  I  I104  1  0.25911631  0.20683225  0.13060436  1
  I  I105  1  0.27546497  0.30114774  0.37929824  1
  I  I106  1  0.22032738  0.19884301  0.62678287  1
  I  I107  1  0.27414502  0.29716132  0.87618438  1
  I  I108  1  0.95311769  0.51564938  0.12153817  1
  I  I109  1  0.00736425  0.53706972  0.37555713  1
  I  I110  1  0.95215461  0.51167540  0.62924443  1
  I  I111  1  0.05610325  0.47134684  0.87569141  1
  I  I112  1  0.77985847  0.29941499  0.11751833  1
  I  I113  1  0.77487879  0.21160098  0.36926301  1
  I  I114  1  0.73411381  0.29900154  0.62192482  1
  I  I115  1  0.77420168  0.19094858  0.87152220  1
  I  I116  1  0.55554777  0.53496577  0.12311070  1
  I  I117  1  0.46714931  0.52178278  0.37323903  1
  I  I118  1  0.55499972  0.47626359  0.62438455  1
  I  I119  1  0.44587001  0.49616156  0.87439532  1
  I  I120  1  0.28446897  0.79600901  0.12626365  1
  I  I121  1  0.26268009  0.68634601  0.37174765  1
  I  I122  1  0.26883065  0.79637344  0.62169131  1
  I  I123  1  0.26396843  0.70480797  0.87414153  1
  I  I124  1  0.77579521  0.70966424  0.12272249  1
  I  I125  1  0.77670489  0.75543983  0.37875634  1
  I  I126  1  0.76087750  0.68892750  0.63132124  1
  I  I127  1  0.76301593  0.81092512  0.87491508  1
  Rb  Rb128  1  0.96928727  0.22788712  0.13245510  1
  Rb  Rb129  1  0.97633374  0.19686869  0.38549252  1
  Rb  Rb130  1  0.02105947  0.20474125  0.61637352  1
  Rb  Rb131  1  0.96104607  0.27197087  0.87886292  1
  Rb  Rb132  1  0.45292377  0.20432113  0.14643184  1
  Rb  Rb133  1  0.46301074  0.22266638  0.37502676  1
  Rb  Rb134  1  0.53744781  0.27379733  0.61289575  1
  Rb  Rb135  1  0.47442475  0.29715065  0.88867286  1
  Rb  Rb136  1  0.22586805  0.49528306  0.12157723  1
  Rb  Rb137  1  0.28253075  0.49138008  0.33146746  1
  Rb  Rb138  1  0.25874064  0.48167150  0.62881458  1
  Rb  Rb139  1  0.24790608  0.49740737  0.84084182  1
  Rb  Rb140  1  0.99491589  0.71165033  0.10594493  1
  Rb  Rb141  1  0.97899484  0.76764259  0.37159491  1
  Rb  Rb142  1  0.95717623  0.70825429  0.63470512  1
  Rb  Rb143  1  0.95388625  0.76371593  0.85714884  1
  Rb  Rb144  1  0.75556395  0.50479030  0.14793121  1
  Rb  Rb145  1  0.80505262  0.55393057  0.39425206  1
  Rb  Rb146  1  0.75512605  0.49557200  0.59444079  1
  Rb  Rb147  1  0.72622756  0.49777523  0.87033163  1
  Rb  Rb148  1  0.46827952  0.71944009  0.14673524  1
  Rb  Rb149  1  0.45680338  0.72327976  0.38186963  1
  Rb  Rb150  1  0.46945199  0.79235038  0.62254223  1
  Rb  Rb151  1  0.46580826  0.69804327  0.86949180  1
  Rb  Rb152  1  0.23971865  0.99402759  0.08725875  1
  Rb  Rb153  1  0.23167765  0.98684396  0.39521311  1
  Rb  Rb154  1  0.25087289  0.99833567  0.65415884  1
  Rb  Rb155  1  0.21106082  0.01906456  0.86565816  1
  Rb  Rb156  1  0.72027748  0.00249298  0.11946958  1
  Rb  Rb157  1  0.74600661  0.02644445  0.32920709  1
  Rb  Rb158  1  0.73320248  0.01050934  0.62907145  1
  Rb  Rb159  1  0.72813951  0.99775615  0.92098720  1
