# generated using pymatgen
data_RbBaF3
_symmetry_space_group_name_H-M   'P 1'
_cell_length_a   14.49328061
_cell_length_b   14.49328061
_cell_length_c   20.49659400
_cell_angle_alpha   90.00000000
_cell_angle_beta   90.00000000
_cell_angle_gamma   90.00000000
_symmetry_Int_Tables_number   1
_chemical_formula_structural   RbBaF3
_chemical_formula_sum   'Rb32 Ba32 F96'
_cell_volume   4305.41579946
_cell_formula_units_Z   32
loop_
 _symmetry_equiv_pos_site_id
 _symmetry_equiv_pos_as_xyz
  1  'x, y, z'
loop_
 _atom_site_type_symbol
 _atom_site_label
 _atom_site_symmetry_multiplicity
 _atom_site_fract_x
 _atom_site_fract_y
 _atom_site_fract_z
 _atom_site_occupancy
  Ba  Ba0  1  0.99844500  0.24122435  0.12428943  1
  Ba  Ba1  1  0.99327429  0.24174036  0.37021495  1
  Ba  Ba2  1  0.99424052  0.24045006  0.62491182  1
  Ba  Ba3  1  0.00228719  0.24214824  0.86753241  1
  Ba  Ba4  1  0.49003639  0.25151622  0.12685817  1
  Ba  Ba5  1  0.49431638  0.26348703  0.37937818  1
  Ba  Ba6  1  0.49626148  0.25050240  0.62693693  1
  Ba  Ba7  1  0.50199075  0.25782433  0.87913697  1
  Ba  Ba8  1  0.24455827  0.49929056  0.12814778  1
  Ba  Ba9  1  0.24741086  0.50686258  0.37992068  1
  Ba  Ba10  1  0.24319378  0.49257592  0.62840544  1
  Ba  Ba11  1  0.25357478  0.49734874  0.88062716  1
  Ba  Ba12  1  0.99487886  0.75246459  0.12801280  1
  Ba  Ba13  1  0.99670007  0.76307203  0.37877343  1
  Ba  Ba14  1  0.99081402  0.75321444  0.62818482  1
  Ba  Ba15  1  0.99576606  0.76032890  0.87983286  1
  Ba  Ba16  1  0.76065035  0.49856005  0.12259825  1
  Ba  Ba17  1  0.75706603  0.50586364  0.36715920  1
  Ba  Ba18  1  0.75732455  0.49699324  0.62325304  1
  Ba  Ba19  1  0.75842499  0.49931900  0.86911607  1
  Ba  Ba20  1  0.49902475  0.74176369  0.12505316  1
  Ba  Ba21  1  0.49600583  0.74224013  0.36803007  1
  Ba  Ba22  1  0.49493138  0.74024803  0.62504985  1
  Ba  Ba23  1  0.50165809  0.74220012  0.86882921  1
  Ba  Ba24  1  0.25940837  0.99615657  0.12346642  1
  Ba  Ba25  1  0.25769595  0.00213785  0.36920704  1
  Ba  Ba26  1  0.25398771  0.99673343  0.62372461  1
  Ba  Ba27  1  0.25748406  0.99664083  0.87120195  1
  Ba  Ba28  1  0.74661697  0.99541574  0.12959574  1
  Ba  Ba29  1  0.74706629  0.00668259  0.38094787  1
  Ba  Ba30  1  0.73909313  0.99619330  0.62740657  1
  Ba  Ba31  1  0.75262837  0.00135352  0.87988889  1
  F  F32  1  0.01419938  0.19996837  0.99583474  1
  F  F33  1  0.02384408  0.29115253  0.24743745  1
  F  F34  1  0.01110675  0.20015498  0.49601933  1
  F  F35  1  0.02049761  0.29548540  0.74521995  1
  F  F36  1  0.54614690  0.27276864  0.00435783  1
  F  F37  1  0.47797551  0.28980707  0.25271065  1
  F  F38  1  0.54696874  0.28127270  0.50387136  1
  F  F39  1  0.45587952  0.27321761  0.75302224  1
  F  F40  1  0.22462076  0.54761488  0.00391773  1
  F  F41  1  0.23017856  0.45416387  0.25493711  1
  F  F42  1  0.21495738  0.54461556  0.50467707  1
  F  F43  1  0.22919018  0.47747270  0.75514782  1
  F  F44  1  0.04615418  0.77480735  0.00417833  1
  F  F45  1  0.95195068  0.78027771  0.25353413  1
  F  F46  1  0.04226499  0.77666515  0.50441059  1
  F  F47  1  0.95944820  0.78026484  0.75397784  1
  F  F48  1  0.71245567  0.51121669  0.99460248  1
  F  F49  1  0.81571141  0.50346886  0.24547642  1
  F  F50  1  0.71189445  0.50410812  0.49508927  1
  F  F51  1  0.80961446  0.52392210  0.74547738  1
  F  F52  1  0.51622044  0.70215290  0.99622406  1
  F  F53  1  0.52934606  0.79360675  0.24655445  1
  F  F54  1  0.51305642  0.70397054  0.49529132  1
  F  F55  1  0.51202917  0.79527801  0.74609473  1
  F  F56  1  0.21137734  0.00874912  0.99598032  1
  F  F57  1  0.31158208  0.01284751  0.24623320  1
  F  F58  1  0.21115245  0.01396143  0.49603106  1
  F  F59  1  0.30818342  0.02082460  0.74654622  1
  F  F60  1  0.72314286  0.04494255  0.00474731  1
  F  F61  1  0.72972344  0.96127521  0.25586045  1
  F  F62  1  0.71084825  0.03818697  0.50403387  1
  F  F63  1  0.75472028  0.94978878  0.75415039  1
  F  F64  1  0.10149026  0.09196088  0.13706616  1
  F  F65  1  0.11673537  0.11434011  0.33868717  1
  F  F66  1  0.09705675  0.09008836  0.63605092  1
  F  F67  1  0.12810059  0.11756247  0.84040363  1
  F  F68  1  0.60471938  0.11262626  0.15429356  1
  F  F69  1  0.59982759  0.11536842  0.35124887  1
  F  F70  1  0.60100231  0.10680378  0.66463011  1
  F  F71  1  0.61053251  0.11295675  0.84973295  1
  F  F72  1  0.40477660  0.41251052  0.11709313  1
  F  F73  1  0.40151788  0.41709121  0.40094664  1
  F  F74  1  0.40486223  0.40965190  0.61846396  1
  F  F75  1  0.41074992  0.41333853  0.89923180  1
  F  F76  1  0.10537209  0.61175345  0.16113926  1
  F  F77  1  0.10052850  0.61427228  0.35213843  1
  F  F78  1  0.10044830  0.60968661  0.65713683  1
  F  F79  1  0.10509363  0.61246148  0.86056124  1
  F  F80  1  0.88633620  0.37647804  0.08386602  1
  F  F81  1  0.89638882  0.39290914  0.39965244  1
  F  F82  1  0.88480083  0.37727851  0.58495712  1
  F  F83  1  0.91338267  0.40333187  0.88249995  1
  F  F84  1  0.60158813  0.58953532  0.13345089  1
  F  F85  1  0.61774938  0.61453688  0.33519180  1
  F  F86  1  0.59896009  0.59034289  0.63389467  1
  F  F87  1  0.62008868  0.61211699  0.83395684  1
  F  F88  1  0.39492829  0.88298861  0.09025786  1
  F  F89  1  0.41228246  0.90511407  0.38483134  1
  F  F90  1  0.38445375  0.87782961  0.58633140  1
  F  F91  1  0.41210844  0.90151541  0.88898620  1
  F  F92  1  0.90755037  0.91316135  0.11763619  1
  F  F93  1  0.90455435  0.91999968  0.39889845  1
  F  F94  1  0.90111434  0.91192393  0.61647964  1
  F  F95  1  0.91005255  0.91694630  0.90031898  1
  F  F96  1  0.83881995  0.15405055  0.14110902  1
  F  F97  1  0.83115139  0.16507296  0.36248201  1
  F  F98  1  0.85322777  0.13388203  0.65832490  1
  F  F99  1  0.85996745  0.13727713  0.83896709  1
  F  F100  1  0.34484549  0.15331159  0.09946709  1
  F  F101  1  0.33631332  0.16976660  0.38559787  1
  F  F102  1  0.34276829  0.15610919  0.60643889  1
  F  F103  1  0.34827328  0.15829890  0.88431403  1
  F  F104  1  0.13184462  0.36099967  0.09415081  1
  F  F105  1  0.13594479  0.35676724  0.39444991  1
  F  F106  1  0.13314044  0.35459219  0.59091897  1
  F  F107  1  0.14213330  0.35563426  0.90414727  1
  F  F108  1  0.85200819  0.65069227  0.09741689  1
  F  F109  1  0.83893017  0.66857719  0.38825107  1
  F  F110  1  0.84027051  0.65757922  0.60536546  1
  F  F111  1  0.84017725  0.66437247  0.88472566  1
  F  F112  1  0.64937151  0.35176507  0.14088362  1
  F  F113  1  0.65471607  0.35425175  0.36082702  1
  F  F114  1  0.64187395  0.35965963  0.65795365  1
  F  F115  1  0.64274675  0.36409312  0.83924357  1
  F  F116  1  0.35949302  0.63459642  0.16023813  1
  F  F117  1  0.34414194  0.65182644  0.34769282  1
  F  F118  1  0.33648790  0.65029823  0.63811624  1
  F  F119  1  0.34011924  0.65798759  0.86456079  1
  F  F120  1  0.14184674  0.86057833  0.15819667  1
  F  F121  1  0.13950082  0.86793433  0.34019297  1
  F  F122  1  0.15357329  0.84332281  0.64110639  1
  F  F123  1  0.16019042  0.84232764  0.86076994  1
  F  F124  1  0.63861782  0.85551222  0.09466502  1
  F  F125  1  0.64370018  0.85253915  0.39658435  1
  F  F126  1  0.63156922  0.85479426  0.59330518  1
  F  F127  1  0.64191663  0.85595470  0.90080910  1
  Rb  Rb128  1  0.01529627  0.99101207  0.01279255  1
  Rb  Rb129  1  0.02956995  0.97067588  0.24217886  1
  Rb  Rb130  1  0.01367538  0.99010502  0.51169867  1
  Rb  Rb131  1  0.95927130  0.99892394  0.73998993  1
  Rb  Rb132  1  0.52891005  0.95165724  0.99807910  1
  Rb  Rb133  1  0.51356928  0.99075028  0.26127545  1
  Rb  Rb134  1  0.52458338  0.94690454  0.49532764  1
  Rb  Rb135  1  0.50681379  0.99362219  0.76467520  1
  Rb  Rb136  1  0.22168184  0.21780501  0.99642588  1
  Rb  Rb137  1  0.22817621  0.25611634  0.27691978  1
  Rb  Rb138  1  0.21954493  0.21998024  0.49956558  1
  Rb  Rb139  1  0.26298356  0.21742984  0.76122560  1
  Rb  Rb140  1  0.02514191  0.45354110  0.99461191  1
  Rb  Rb141  1  0.01964766  0.49216416  0.25783460  1
  Rb  Rb142  1  0.02439279  0.45188596  0.49715509  1
  Rb  Rb143  1  0.01610827  0.49215443  0.76472571  1
  Rb  Rb144  1  0.73621208  0.24269011  0.03937617  1
  Rb  Rb145  1  0.70715940  0.23032298  0.25277168  1
  Rb  Rb146  1  0.74663702  0.28043056  0.47523055  1
  Rb  Rb147  1  0.72236290  0.22217336  0.75075857  1
  Rb  Rb148  1  0.51778999  0.48964447  0.01193046  1
  Rb  Rb149  1  0.49639940  0.49220147  0.23080330  1
  Rb  Rb150  1  0.51397240  0.48933024  0.51271336  1
  Rb  Rb151  1  0.52966187  0.46777282  0.74304966  1
  Rb  Rb152  1  0.23484244  0.74093350  0.97196765  1
  Rb  Rb153  1  0.22101073  0.72819164  0.25082068  1
  Rb  Rb154  1  0.23474932  0.74183530  0.53623624  1
  Rb  Rb155  1  0.21639579  0.71471649  0.75259755  1
  Rb  Rb156  1  0.72319155  0.72018018  0.99879061  1
  Rb  Rb157  1  0.74073934  0.76300585  0.27805273  1
  Rb  Rb158  1  0.72029826  0.72301748  0.50002937  1
  Rb  Rb159  1  0.75841988  0.73451459  0.76372716  1
