# generated using pymatgen
data_RbBaCl3
_symmetry_space_group_name_H-M   'P 1'
_cell_length_a   17.07645623
_cell_length_b   17.07645623
_cell_length_c   24.14975700
_cell_angle_alpha   90.00000000
_cell_angle_beta   90.00000000
_cell_angle_gamma   90.00000000
_symmetry_Int_Tables_number   1
_chemical_formula_structural   RbBaCl3
_chemical_formula_sum   'Rb32 Ba32 Cl96'
_cell_volume   7042.19852183
_cell_formula_units_Z   32
loop_
 _symmetry_equiv_pos_site_id
 _symmetry_equiv_pos_as_xyz
  1  'x, y, z'
loop_
 _atom_site_type_symbol
 _atom_site_label
 _atom_site_symmetry_multiplicity
 _atom_site_fract_x
 _atom_site_fract_y
 _atom_site_fract_z
 _atom_site_occupancy
  Ba  Ba0  1  0.00542272  0.98988714  0.99619561  1
  Ba  Ba1  1  0.00341833  0.00483375  0.23974988  1
  Ba  Ba2  1  0.00347882  0.99706422  0.49461234  1
  Ba  Ba3  1  0.00295517  0.99775457  0.74899654  1
  Ba  Ba4  1  0.50652574  0.99925210  0.99230432  1
  Ba  Ba5  1  0.49189392  0.00890765  0.24486441  1
  Ba  Ba6  1  0.49879829  0.00355977  0.50036294  1
  Ba  Ba7  1  0.48922217  0.00458760  0.75056402  1
  Ba  Ba8  1  0.24759111  0.24607093  0.00126181  1
  Ba  Ba9  1  0.24218936  0.25395894  0.25167043  1
  Ba  Ba10  1  0.25150808  0.25316386  0.49953995  1
  Ba  Ba11  1  0.24843749  0.24694026  0.75049398  1
  Ba  Ba12  1  0.00186757  0.50067060  0.00438429  1
  Ba  Ba13  1  0.99530763  0.50572010  0.25477438  1
  Ba  Ba14  1  0.99902039  0.50253084  0.50411446  1
  Ba  Ba15  1  0.00794221  0.49735916  0.75791475  1
  Ba  Ba16  1  0.75319379  0.24378684  0.00066403  1
  Ba  Ba17  1  0.75417380  0.25098321  0.24679120  1
  Ba  Ba18  1  0.76142334  0.24642061  0.50258063  1
  Ba  Ba19  1  0.75359682  0.25112348  0.75606305  1
  Ba  Ba20  1  0.49854373  0.49857605  0.99995286  1
  Ba  Ba21  1  0.49845790  0.49816457  0.24809244  1
  Ba  Ba22  1  0.50291720  0.50132310  0.50478201  1
  Ba  Ba23  1  0.49959299  0.49657653  0.74914492  1
  Ba  Ba24  1  0.25415099  0.74728903  0.99721468  1
  Ba  Ba25  1  0.25461477  0.75435716  0.25164391  1
  Ba  Ba26  1  0.25677612  0.74840960  0.50236725  1
  Ba  Ba27  1  0.24960744  0.74429677  0.75158116  1
  Ba  Ba28  1  0.74397692  0.74848592  0.99359131  1
  Ba  Ba29  1  0.74058716  0.74885443  0.23998250  1
  Ba  Ba30  1  0.74730277  0.75207618  0.49533162  1
  Ba  Ba31  1  0.75107913  0.74719956  0.74967779  1
  Cl  Cl32  1  0.16024022  0.08422364  0.01616849  1
  Cl  Cl33  1  0.08889312  0.16245834  0.22454028  1
  Cl  Cl34  1  0.15906779  0.09721642  0.51345301  1
  Cl  Cl35  1  0.08745064  0.16142972  0.73430219  1
  Cl  Cl36  1  0.66661430  0.08177324  0.01535124  1
  Cl  Cl37  1  0.60473153  0.14753784  0.21722481  1
  Cl  Cl38  1  0.64778102  0.10634284  0.52071158  1
  Cl  Cl39  1  0.59415482  0.15572250  0.73225361  1
  Cl  Cl40  1  0.34306679  0.40130514  0.98118001  1
  Cl  Cl41  1  0.40190240  0.34296457  0.26555408  1
  Cl  Cl42  1  0.34999145  0.40445473  0.48300051  1
  Cl  Cl43  1  0.39299929  0.35316687  0.78102856  1
  Cl  Cl44  1  0.15693821  0.59555558  0.01162340  1
  Cl  Cl45  1  0.10696468  0.64953595  0.28070248  1
  Cl  Cl46  1  0.15684250  0.59409689  0.48731283  1
  Cl  Cl47  1  0.09201706  0.65798569  0.76656254  1
  Cl  Cl48  1  0.84220114  0.40658058  0.99273996  1
  Cl  Cl49  1  0.91099542  0.34464998  0.24905430  1
  Cl  Cl50  1  0.84160796  0.40951915  0.51737347  1
  Cl  Cl51  1  0.89326971  0.35860018  0.78603281  1
  Cl  Cl52  1  0.64691815  0.59956044  0.02351249  1
  Cl  Cl53  1  0.58106863  0.66268125  0.23446608  1
  Cl  Cl54  1  0.66073814  0.58993766  0.49512780  1
  Cl  Cl55  1  0.59003051  0.65591576  0.74586393  1
  Cl  Cl56  1  0.34927972  0.90484865  0.98253419  1
  Cl  Cl57  1  0.40953629  0.84725064  0.25098969  1
  Cl  Cl58  1  0.34083981  0.91154998  0.51397934  1
  Cl  Cl59  1  0.40785917  0.83952965  0.74940268  1
  Cl  Cl60  1  0.86511973  0.88144455  0.95975174  1
  Cl  Cl61  1  0.89601336  0.85079376  0.25761029  1
  Cl  Cl62  1  0.85970272  0.89056215  0.47618713  1
  Cl  Cl63  1  0.91002349  0.83801167  0.75271591  1
  Cl  Cl64  1  0.89728268  0.13580796  0.98628130  1
  Cl  Cl65  1  0.83761281  0.08562443  0.24154133  1
  Cl  Cl66  1  0.91804790  0.15658363  0.50497227  1
  Cl  Cl67  1  0.83943380  0.08762441  0.75414120  1
  Cl  Cl68  1  0.39477031  0.14020694  0.03037948  1
  Cl  Cl69  1  0.35107479  0.11287652  0.21250581  1
  Cl  Cl70  1  0.41438985  0.16886975  0.50839475  1
  Cl  Cl71  1  0.33770493  0.09398383  0.71978621  1
  Cl  Cl72  1  0.08628006  0.33477380  0.99348967  1
  Cl  Cl73  1  0.13698453  0.39530884  0.29250558  1
  Cl  Cl74  1  0.08974763  0.34215883  0.49026686  1
  Cl  Cl75  1  0.14507416  0.38894000  0.79198730  1
  Cl  Cl76  1  0.90245905  0.65729503  0.01698268  1
  Cl  Cl77  1  0.86246763  0.62010913  0.21526975  1
  Cl  Cl78  1  0.89432917  0.64774779  0.53231042  1
  Cl  Cl79  1  0.85797495  0.59884607  0.72295885  1
  Cl  Cl80  1  0.60837753  0.35351939  0.00537971  1
  Cl  Cl81  1  0.65863384  0.40720537  0.24001912  1
  Cl  Cl82  1  0.60545053  0.34561796  0.48666825  1
  Cl  Cl83  1  0.64316340  0.39226040  0.78536926  1
  Cl  Cl84  1  0.39357599  0.63986202  0.03478080  1
  Cl  Cl85  1  0.33879062  0.59141827  0.23612918  1
  Cl  Cl86  1  0.38944545  0.63417121  0.54141921  1
  Cl  Cl87  1  0.33715400  0.58250863  0.72927623  1
  Cl  Cl88  1  0.11210584  0.85012448  0.95894154  1
  Cl  Cl89  1  0.14758192  0.89865416  0.27657949  1
  Cl  Cl90  1  0.12332275  0.86488049  0.46502841  1
  Cl  Cl91  1  0.16378462  0.90835278  0.76146990  1
  Cl  Cl92  1  0.59547208  0.84468691  0.95874669  1
  Cl  Cl93  1  0.64593029  0.90762972  0.26071132  1
  Cl  Cl94  1  0.58986639  0.84564537  0.48786156  1
  Cl  Cl95  1  0.64356443  0.89688983  0.74778535  1
  Cl  Cl96  1  0.99544830  0.94579381  0.11951211  1
  Cl  Cl97  1  0.98651695  0.00565578  0.36721386  1
  Cl  Cl98  1  0.02547771  0.99455316  0.62198329  1
  Cl  Cl99  1  0.02092034  0.03861313  0.87207130  1
  Cl  Cl100  1  0.50416569  0.95688123  0.11988284  1
  Cl  Cl101  1  0.46617850  0.99599026  0.37285779  1
  Cl  Cl102  1  0.52047476  0.97907296  0.62572861  1
  Cl  Cl103  1  0.48924775  0.05776447  0.87200785  1
  Cl  Cl104  1  0.25604579  0.30048789  0.12624599  1
  Cl  Cl105  1  0.26974446  0.20427288  0.37545849  1
  Cl  Cl106  1  0.22927054  0.29514778  0.62466750  1
  Cl  Cl107  1  0.23137668  0.19915097  0.87598261  1
  Cl  Cl108  1  0.02521040  0.47360897  0.13056585  1
  Cl  Cl109  1  0.94742769  0.49301435  0.38008892  1
  Cl  Cl110  1  0.04677421  0.51166811  0.63043859  1
  Cl  Cl111  1  0.97406496  0.53886590  0.88016789  1
  Cl  Cl112  1  0.79146572  0.27165131  0.12309951  1
  Cl  Cl113  1  0.77914766  0.26973918  0.37510921  1
  Cl  Cl114  1  0.74353219  0.24423383  0.62963200  1
  Cl  Cl115  1  0.71848380  0.21145949  0.87736201  1
  Cl  Cl116  1  0.47744363  0.45506435  0.12448444  1
  Cl  Cl117  1  0.51822485  0.48824138  0.37601216  1
  Cl  Cl118  1  0.52785439  0.44903457  0.62651107  1
  Cl  Cl119  1  0.48185525  0.54002415  0.87487911  1
  Cl  Cl120  1  0.26547985  0.79288525  0.12457016  1
  Cl  Cl121  1  0.29563170  0.72996763  0.37720924  1
  Cl  Cl122  1  0.20278861  0.76539709  0.62611473  1
  Cl  Cl123  1  0.29490289  0.70730162  0.87416727  1
  Cl  Cl124  1  0.75229916  0.80632305  0.11765052  1
  Cl  Cl125  1  0.73038842  0.75636035  0.36715765  1
  Cl  Cl126  1  0.72134330  0.74339386  0.62244413  1
  Cl  Cl127  1  0.76850197  0.69387109  0.87144505  1
  Rb  Rb128  1  0.99610541  0.28161977  0.12913768  1
  Rb  Rb129  1  0.98529610  0.29651183  0.37228533  1
  Rb  Rb130  1  0.04659678  0.21083658  0.60300651  1
  Rb  Rb131  1  0.03567725  0.24321415  0.86733238  1
  Rb  Rb132  1  0.45804209  0.25461291  0.13965211  1
  Rb  Rb133  1  0.45809034  0.29289625  0.39407457  1
  Rb  Rb134  1  0.54330658  0.24764961  0.60409379  1
  Rb  Rb135  1  0.52864450  0.25023606  0.85268232  1
  Rb  Rb136  1  0.27777952  0.49806770  0.10216255  1
  Rb  Rb137  1  0.23593987  0.53932730  0.36037790  1
  Rb  Rb138  1  0.24997762  0.50757071  0.60368375  1
  Rb  Rb139  1  0.28658935  0.49837216  0.86027578  1
  Rb  Rb140  1  0.94408317  0.75829475  0.13073194  1
  Rb  Rb141  1  0.02471467  0.79832019  0.35685149  1
  Rb  Rb142  1  0.99928546  0.71194868  0.65080494  1
  Rb  Rb143  1  0.97158248  0.73844530  0.88431284  1
  Rb  Rb144  1  0.72472280  0.45966437  0.10513597  1
  Rb  Rb145  1  0.72856933  0.46100415  0.39812538  1
  Rb  Rb146  1  0.76292833  0.54138902  0.60732368  1
  Rb  Rb147  1  0.78425236  0.49152394  0.86906955  1
  Rb  Rb148  1  0.46858065  0.75737030  0.13441942  1
  Rb  Rb149  1  0.52883120  0.79750593  0.35602306  1
  Rb  Rb150  1  0.53134291  0.78377267  0.64319395  1
  Rb  Rb151  1  0.49220561  0.73725290  0.85926786  1
  Rb  Rb152  1  0.29260446  0.99761571  0.10113972  1
  Rb  Rb153  1  0.25336616  0.99687197  0.40157051  1
  Rb  Rb154  1  0.22812354  0.97327417  0.63048457  1
  Rb  Rb155  1  0.21886343  0.99822881  0.88942293  1
  Rb  Rb156  1  0.71184308  0.00428944  0.14272392  1
  Rb  Rb157  1  0.79466560  0.95613194  0.35080575  1
  Rb  Rb158  1  0.70722297  0.03781583  0.65073047  1
  Rb  Rb159  1  0.78651571  0.03110157  0.89125723  1
