# generated using pymatgen
data_RbBeF3
_symmetry_space_group_name_H-M   'P 1'
_cell_length_a   10.91369819
_cell_length_b   10.91369819
_cell_length_c   15.43430100
_cell_angle_alpha   90.00000000
_cell_angle_beta   90.00000000
_cell_angle_gamma   90.00000000
_symmetry_Int_Tables_number   1
_chemical_formula_structural   RbBeF3
_chemical_formula_sum   'Rb32 Be32 F96'
_cell_volume   1838.36119820
_cell_formula_units_Z   32
loop_
 _symmetry_equiv_pos_site_id
 _symmetry_equiv_pos_as_xyz
  1  'x, y, z'
loop_
 _atom_site_type_symbol
 _atom_site_label
 _atom_site_symmetry_multiplicity
 _atom_site_fract_x
 _atom_site_fract_y
 _atom_site_fract_z
 _atom_site_occupancy
  Be  Be0  1  0.98353952  0.27558246  0.12192937  1
  Be  Be1  1  0.97341880  0.19778959  0.33153506  1
  Be  Be2  1  0.92553538  0.25162684  0.62332827  1
  Be  Be3  1  0.96653917  0.25958735  0.90652600  1
  Be  Be4  1  0.48333897  0.19079506  0.13472076  1
  Be  Be5  1  0.47505418  0.29235685  0.39141739  1
  Be  Be6  1  0.46682201  0.22547629  0.64419110  1
  Be  Be7  1  0.45582205  0.23502305  0.85169375  1
  Be  Be8  1  0.28280225  0.52548372  0.14504880  1
  Be  Be9  1  0.27551424  0.48538845  0.35230296  1
  Be  Be10  1  0.21031837  0.49358508  0.62194887  1
  Be  Be11  1  0.24674875  0.53934235  0.89040819  1
  Be  Be12  1  0.95951647  0.73210553  0.11143275  1
  Be  Be13  1  0.98078274  0.73723595  0.39897374  1
  Be  Be14  1  0.02903876  0.72144405  0.60398329  1
  Be  Be15  1  0.00373636  0.79701225  0.86517253  1
  Be  Be16  1  0.72684095  0.54084779  0.10062487  1
  Be  Be17  1  0.74579461  0.56161206  0.38405084  1
  Be  Be18  1  0.73610992  0.46670048  0.64900439  1
  Be  Be19  1  0.76672783  0.47878083  0.85585605  1
  Be  Be20  1  0.49848981  0.72760498  0.10111239  1
  Be  Be21  1  0.55566551  0.77333443  0.35915957  1
  Be  Be22  1  0.44932282  0.76482920  0.62913305  1
  Be  Be23  1  0.52353294  0.76256787  0.88731441  1
  Be  Be24  1  0.24540326  0.02099871  0.09472827  1
  Be  Be25  1  0.22556778  0.03978782  0.34745877  1
  Be  Be26  1  0.27876174  0.00947779  0.60788907  1
  Be  Be27  1  0.24667335  0.03677515  0.88220535  1
  Be  Be28  1  0.72482699  0.01914094  0.15290334  1
  Be  Be29  1  0.74096463  0.01675618  0.36992310  1
  Be  Be30  1  0.77612113  0.00410743  0.59356680  1
  Be  Be31  1  0.81068903  0.01469598  0.87642310  1
  F  F32  1  0.97392366  0.23886029  0.01173978  1
  F  F33  1  0.98484089  0.21170663  0.22653945  1
  F  F34  1  0.98188963  0.23445671  0.53570419  1
  F  F35  1  0.97284858  0.24092137  0.71393227  1
  F  F36  1  0.48643526  0.25226565  0.04928152  1
  F  F37  1  0.47667421  0.24713217  0.22398591  1
  F  F38  1  0.47287420  0.24275864  0.47787551  1
  F  F39  1  0.47346438  0.23722798  0.75016653  1
  F  F40  1  0.24786372  0.48861311  0.97766123  1
  F  F41  1  0.26386619  0.51366069  0.24968104  1
  F  F42  1  0.26290694  0.49111559  0.53007328  1
  F  F43  1  0.25194428  0.49386404  0.71851329  1
  F  F44  1  0.00546402  0.72940615  0.01769501  1
  F  F45  1  0.02723110  0.72667230  0.19519469  1
  F  F46  1  0.00529271  0.74175693  0.49943238  1
  F  F47  1  0.99301413  0.74256573  0.78023204  1
  F  F48  1  0.74259731  0.51590413  0.00629648  1
  F  F49  1  0.75154144  0.51006454  0.29446261  1
  F  F50  1  0.74798873  0.49305909  0.46652507  1
  F  F51  1  0.76520700  0.48070407  0.74959745  1
  F  F52  1  0.50861769  0.73437172  0.99928149  1
  F  F53  1  0.53696991  0.74954348  0.26327359  1
  F  F54  1  0.51727785  0.77023187  0.54464873  1
  F  F55  1  0.51512214  0.76316688  0.71426521  1
  F  F56  1  0.26754536  0.99983059  0.98727940  1
  F  F57  1  0.24358788  0.02238686  0.25080725  1
  F  F58  1  0.26945501  0.99699456  0.51114571  1
  F  F59  1  0.25732008  0.98341476  0.79254260  1
  F  F60  1  0.75329958  0.02338141  0.96253982  1
  F  F61  1  0.74596669  0.99826044  0.25479729  1
  F  F62  1  0.76868359  0.00991086  0.48495426  1
  F  F63  1  0.76168758  0.00779237  0.78735708  1
  F  F64  1  0.14486215  0.11639323  0.11041499  1
  F  F65  1  0.10148922  0.14335632  0.35997943  1
  F  F66  1  0.16078198  0.07173174  0.63494942  1
  F  F67  1  0.12826787  0.10699795  0.88854690  1
  F  F68  1  0.61056900  0.11683420  0.14080114  1
  F  F69  1  0.63751104  0.11079814  0.36884840  1
  F  F70  1  0.58426757  0.16586157  0.61824565  1
  F  F71  1  0.57361170  0.18562996  0.88762241  1
  F  F72  1  0.34379465  0.40792901  0.12371491  1
  F  F73  1  0.36475251  0.36476138  0.36180853  1
  F  F74  1  0.39526632  0.33748978  0.62106260  1
  F  F75  1  0.38845028  0.35225937  0.87040385  1
  F  F76  1  0.16828733  0.58473957  0.11701598  1
  F  F77  1  0.08992772  0.67666557  0.35995690  1
  F  F78  1  0.12626730  0.61647628  0.61528632  1
  F  F79  1  0.12894857  0.59999628  0.87118442  1
  F  F80  1  0.87483939  0.35768694  0.12857827  1
  F  F81  1  0.92959064  0.31716043  0.36583212  1
  F  F82  1  0.85486844  0.38553495  0.61906499  1
  F  F83  1  0.86243785  0.36042101  0.88317767  1
  F  F84  1  0.62514940  0.65500118  0.12074009  1
  F  F85  1  0.62529922  0.65228592  0.39121990  1
  F  F86  1  0.68719668  0.58918552  0.62334624  1
  F  F87  1  0.58857539  0.64676921  0.86269552  1
  F  F88  1  0.43682427  0.84450656  0.12633402  1
  F  F89  1  0.43800165  0.82595220  0.39043278  1
  F  F90  1  0.35391054  0.88813294  0.63503588  1
  F  F91  1  0.40364753  0.82948181  0.87462102  1
  F  F92  1  0.88341092  0.84772803  0.11548640  1
  F  F93  1  0.92187240  0.85603697  0.37146794  1
  F  F94  1  0.87668546  0.91481260  0.61733089  1
  F  F95  1  0.89336632  0.88410294  0.88187635  1
  F  F96  1  0.83425206  0.09317335  0.12326710  1
  F  F97  1  0.87473150  0.09753611  0.35829548  1
  F  F98  1  0.82485795  0.13512952  0.62122959  1
  F  F99  1  0.90157678  0.13714361  0.87476011  1
  F  F100  1  0.37149052  0.08964840  0.12187303  1
  F  F101  1  0.33672079  0.11454814  0.37488074  1
  F  F102  1  0.37319194  0.11312700  0.63379142  1
  F  F103  1  0.36239051  0.12926376  0.87784083  1
  F  F104  1  0.09691034  0.35204452  0.12296061  1
  F  F105  1  0.15637091  0.42754196  0.37461497  1
  F  F106  1  0.11662548  0.38597703  0.62191905  1
  F  F107  1  0.07872066  0.32944126  0.87824821  1
  F  F108  1  0.85427541  0.61003688  0.12478004  1
  F  F109  1  0.86842306  0.64225242  0.38711362  1
  F  F110  1  0.91303777  0.65990026  0.63172540  1
  F  F111  1  0.84180791  0.59311741  0.87251242  1
  F  F112  1  0.65909115  0.43366291  0.13793805  1
  F  F113  1  0.58796506  0.35755508  0.36867110  1
  F  F114  1  0.63424074  0.37838870  0.63208143  1
  F  F115  1  0.64700014  0.41575406  0.87136760  1
  F  F116  1  0.39512176  0.62592484  0.12653849  1
  F  F117  1  0.35265408  0.58964716  0.38179391  1
  F  F118  1  0.36828501  0.65262190  0.62554497  1
  F  F119  1  0.35929943  0.59878258  0.86432456  1
  F  F120  1  0.19265519  0.89862210  0.11875348  1
  F  F121  1  0.17159216  0.92012879  0.37628043  1
  F  F122  1  0.09821780  0.83492587  0.62829710  1
  F  F123  1  0.11643802  0.85582108  0.89306848  1
  F  F124  1  0.66683070  0.90579845  0.11763266  1
  F  F125  1  0.66268809  0.87913179  0.37617968  1
  F  F126  1  0.66016252  0.94744570  0.62540108  1
  F  F127  1  0.62123894  0.86289613  0.87611018  1
  Rb  Rb128  1  0.99932538  0.99405395  0.01449088  1
  Rb  Rb129  1  0.01044422  0.96485674  0.23262466  1
  Rb  Rb130  1  0.02320619  0.00022666  0.49898963  1
  Rb  Rb131  1  0.01221345  0.99952730  0.74383665  1
  Rb  Rb132  1  0.51559909  0.99790435  0.99284867  1
  Rb  Rb133  1  0.48384558  0.99014267  0.26231540  1
  Rb  Rb134  1  0.50719566  0.00493958  0.49693407  1
  Rb  Rb135  1  0.51147955  0.99233164  0.75751285  1
  Rb  Rb136  1  0.24747846  0.26355264  0.00032241  1
  Rb  Rb137  1  0.23654840  0.26050781  0.23756645  1
  Rb  Rb138  1  0.22515963  0.25081055  0.50257925  1
  Rb  Rb139  1  0.21612774  0.25079109  0.74672429  1
  Rb  Rb140  1  0.99904511  0.49672691  0.99992397  1
  Rb  Rb141  1  0.99939347  0.49919716  0.25111408  1
  Rb  Rb142  1  0.99511600  0.48012870  0.49060080  1
  Rb  Rb143  1  0.00383054  0.49462063  0.75124880  1
  Rb  Rb144  1  0.72030174  0.26135164  0.01085629  1
  Rb  Rb145  1  0.73422746  0.27016371  0.25121548  1
  Rb  Rb146  1  0.73083275  0.26006264  0.48781286  1
  Rb  Rb147  1  0.72254198  0.23574251  0.75906879  1
  Rb  Rb148  1  0.49731313  0.48304554  0.99155352  1
  Rb  Rb149  1  0.51305343  0.50785524  0.25249606  1
  Rb  Rb150  1  0.50100176  0.51191019  0.51588132  1
  Rb  Rb151  1  0.49229904  0.50669580  0.74118981  1
  Rb  Rb152  1  0.25649738  0.74596361  0.00208708  1
  Rb  Rb153  1  0.26579881  0.76561878  0.25514225  1
  Rb  Rb154  1  0.25768912  0.74889797  0.48817899  1
  Rb  Rb155  1  0.24361455  0.74884620  0.75539053  1
  Rb  Rb156  1  0.75436389  0.75778759  0.98681232  1
  Rb  Rb157  1  0.77270053  0.75645433  0.24660544  1
  Rb  Rb158  1  0.75152411  0.75933347  0.52245853  1
  Rb  Rb159  1  0.75151404  0.75881494  0.74321276  1
