# generated using pymatgen
data_RbBrCl3
_symmetry_space_group_name_H-M   'P 1'
_cell_length_a   15.29515667
_cell_length_b   15.29515667
_cell_length_c   21.63061900
_cell_angle_alpha   90.00000000
_cell_angle_beta   90.00000000
_cell_angle_gamma   90.00000000
_symmetry_Int_Tables_number   1
_chemical_formula_structural   RbBrCl3
_chemical_formula_sum   'Rb32 Br32 Cl96'
_cell_volume   5060.30632318
_cell_formula_units_Z   32
loop_
 _symmetry_equiv_pos_site_id
 _symmetry_equiv_pos_as_xyz
  1  'x, y, z'
loop_
 _atom_site_type_symbol
 _atom_site_label
 _atom_site_symmetry_multiplicity
 _atom_site_fract_x
 _atom_site_fract_y
 _atom_site_fract_z
 _atom_site_occupancy
  Rb  Rb0  1  0.95054236  0.00419058  0.04601746  1
  Rb  Rb1  1  0.99312076  0.97087725  0.27637929  1
  Rb  Rb2  1  0.97898131  0.05144045  0.49308795  1
  Rb  Rb3  1  0.02188693  0.00443342  0.73739379  1
  Rb  Rb4  1  0.48607830  0.05852300  0.02930803  1
  Rb  Rb5  1  0.47218508  0.01759693  0.26482304  1
  Rb  Rb6  1  0.53945019  0.01490237  0.54438981  1
  Rb  Rb7  1  0.55889185  0.95788726  0.75180500  1
  Rb  Rb8  1  0.28737460  0.26903226  0.03409643  1
  Rb  Rb9  1  0.20199877  0.21639137  0.27378263  1
  Rb  Rb10  1  0.19489519  0.20217917  0.47692430  1
  Rb  Rb11  1  0.24728664  0.24239609  0.76846448  1
  Rb  Rb12  1  0.03354259  0.44044857  0.01930643  1
  Rb  Rb13  1  0.00998175  0.46459458  0.22688400  1
  Rb  Rb14  1  0.00312994  0.48887079  0.49857950  1
  Rb  Rb15  1  0.00394052  0.55806390  0.73200688  1
  Rb  Rb16  1  0.72827307  0.26111376  0.03626305  1
  Rb  Rb17  1  0.73834945  0.20966994  0.25715893  1
  Rb  Rb18  1  0.75746244  0.24861415  0.54446092  1
  Rb  Rb19  1  0.78618372  0.23865328  0.76401458  1
  Rb  Rb20  1  0.48410409  0.50384398  0.96550275  1
  Rb  Rb21  1  0.46783914  0.49507008  0.23721474  1
  Rb  Rb22  1  0.49695540  0.46091789  0.54422205  1
  Rb  Rb23  1  0.49807829  0.50430993  0.75536880  1
  Rb  Rb24  1  0.20181471  0.74583584  0.97902358  1
  Rb  Rb25  1  0.19305027  0.72975351  0.21981204  1
  Rb  Rb26  1  0.22161891  0.76544633  0.47471522  1
  Rb  Rb27  1  0.25549509  0.70995352  0.72840169  1
  Rb  Rb28  1  0.73007811  0.72383898  0.98161000  1
  Rb  Rb29  1  0.73424438  0.76591757  0.23621517  1
  Rb  Rb30  1  0.77224410  0.76889331  0.50148402  1
  Rb  Rb31  1  0.78809219  0.76020584  0.73219531  1
  Br  Br32  1  0.01101920  0.22273938  0.16417716  1
  Br  Br33  1  0.93101146  0.29842784  0.40627133  1
  Br  Br34  1  0.02411367  0.27122294  0.66293348  1
  Br  Br35  1  0.00692150  0.22075249  0.90859085  1
  Br  Br36  1  0.49321029  0.25311032  0.17547783  1
  Br  Br37  1  0.46839200  0.26539469  0.40837464  1
  Br  Br38  1  0.51281874  0.23653420  0.67093149  1
  Br  Br39  1  0.55167181  0.30345894  0.90746000  1
  Br  Br40  1  0.26414908  0.50954148  0.11074182  1
  Br  Br41  1  0.23337832  0.49303778  0.35784857  1
  Br  Br42  1  0.26953679  0.47200122  0.60066200  1
  Br  Br43  1  0.22517527  0.50256204  0.85935912  1
  Br  Br44  1  0.98733861  0.72107059  0.05906587  1
  Br  Br45  1  0.95974871  0.72359728  0.34339264  1
  Br  Br46  1  0.03573362  0.75307714  0.58636680  1
  Br  Br47  1  0.03010729  0.83546306  0.84584729  1
  Br  Br48  1  0.74807375  0.51140409  0.13102663  1
  Br  Br49  1  0.68863443  0.50601336  0.38064013  1
  Br  Br50  1  0.74800430  0.50893242  0.63089154  1
  Br  Br51  1  0.82649793  0.50146834  0.87775958  1
  Br  Br52  1  0.47778133  0.76686989  0.10417747  1
  Br  Br53  1  0.51877291  0.74181225  0.34855151  1
  Br  Br54  1  0.50206802  0.74948046  0.59335154  1
  Br  Br55  1  0.52027971  0.71797945  0.84747219  1
  Br  Br56  1  0.23808155  0.98740658  0.10751534  1
  Br  Br57  1  0.24657829  0.96464323  0.35628069  1
  Br  Br58  1  0.27416629  0.00805047  0.61542045  1
  Br  Br59  1  0.31670338  0.00334799  0.86922256  1
  Br  Br60  1  0.73490997  0.97216940  0.12437296  1
  Br  Br61  1  0.72301209  0.01253074  0.38446030  1
  Br  Br62  1  0.78720063  0.99595590  0.63557374  1
  Br  Br63  1  0.73290818  0.00680100  0.88576508  1
  Cl  Cl64  1  0.97159652  0.22659566  0.01913553  1
  Cl  Cl65  1  0.90113153  0.32335764  0.30044269  1
  Cl  Cl66  1  0.96815034  0.26744668  0.51391098  1
  Cl  Cl67  1  0.02536712  0.22309472  0.79830586  1
  Cl  Cl68  1  0.50835836  0.27337696  0.01486252  1
  Cl  Cl69  1  0.39479738  0.30850907  0.31773096  1
  Cl  Cl70  1  0.54464340  0.23137134  0.50464158  1
  Cl  Cl71  1  0.59638850  0.33381232  0.80544670  1
  Cl  Cl72  1  0.23776771  0.52170278  0.96966570  1
  Cl  Cl73  1  0.24195080  0.43797647  0.25387572  1
  Cl  Cl74  1  0.21961411  0.55152279  0.45943578  1
  Cl  Cl75  1  0.21111327  0.47798928  0.74851833  1
  Cl  Cl76  1  0.06425022  0.89760058  0.94198477  1
  Cl  Cl77  1  0.95462935  0.75271408  0.23245884  1
  Cl  Cl78  1  0.97748865  0.70480554  0.45261383  1
  Cl  Cl79  1  0.00366110  0.77872925  0.74011914  1
  Cl  Cl80  1  0.69224286  0.47620228  0.03001909  1
  Cl  Cl81  1  0.80218203  0.54910549  0.23078160  1
  Cl  Cl82  1  0.77287789  0.46441609  0.52623819  1
  Cl  Cl83  1  0.72601501  0.54873493  0.73590502  1
  Cl  Cl84  1  0.40577648  0.68686031  0.02388419  1
  Cl  Cl85  1  0.54956239  0.84906092  0.18372445  1
  Cl  Cl86  1  0.57728662  0.66559748  0.51670058  1
  Cl  Cl87  1  0.42518052  0.83260744  0.67031528  1
  Cl  Cl88  1  0.16631711  0.07933027  0.03347534  1
  Cl  Cl89  1  0.31446559  0.90196753  0.18317858  1
  Cl  Cl90  1  0.19432453  0.97883951  0.52049172  1
  Cl  Cl91  1  0.35142849  0.04436918  0.70794685  1
  Cl  Cl92  1  0.68670246  0.05870002  0.98413564  1
  Cl  Cl93  1  0.70152820  0.98797887  0.27514861  1
  Cl  Cl94  1  0.75086853  0.03147603  0.49446094  1
  Cl  Cl95  1  0.78795835  0.96886176  0.78414331  1
  Cl  Cl96  1  0.14990441  0.04604950  0.18889968  1
  Cl  Cl97  1  0.07476781  0.11446541  0.36936044  1
  Cl  Cl98  1  0.13012942  0.16025494  0.64417016  1
  Cl  Cl99  1  0.17607621  0.06145253  0.84241247  1
  Cl  Cl100  1  0.64534618  0.10399019  0.13469512  1
  Cl  Cl101  1  0.56954976  0.17585608  0.35089944  1
  Cl  Cl102  1  0.63254448  0.13377542  0.65676809  1
  Cl  Cl103  1  0.64036798  0.11290462  0.83747234  1
  Cl  Cl104  1  0.40185754  0.43911888  0.09607027  1
  Cl  Cl105  1  0.36199791  0.34408779  0.46681729  1
  Cl  Cl106  1  0.39853073  0.33910665  0.68323799  1
  Cl  Cl107  1  0.33768280  0.39075747  0.86676209  1
  Cl  Cl108  1  0.12346930  0.57843166  0.12386449  1
  Cl  Cl109  1  0.06568836  0.61286447  0.32771737  1
  Cl  Cl110  1  0.12871891  0.63016795  0.60612988  1
  Cl  Cl111  1  0.13120302  0.62902628  0.85254145  1
  Cl  Cl112  1  0.85626645  0.39493704  0.12330644  1
  Cl  Cl113  1  0.69512529  0.35424403  0.39083466  1
  Cl  Cl114  1  0.90984348  0.37784835  0.68034174  1
  Cl  Cl115  1  0.97480891  0.45364622  0.86870073  1
  Cl  Cl116  1  0.63837544  0.62199596  0.13851894  1
  Cl  Cl117  1  0.67769220  0.66862899  0.36861606  1
  Cl  Cl118  1  0.58262051  0.67640973  0.67195014  1
  Cl  Cl119  1  0.67624634  0.55420013  0.88308570  1
  Cl  Cl120  1  0.32249266  0.92132929  0.02752115  1
  Cl  Cl121  1  0.40047428  0.82807745  0.33987899  1
  Cl  Cl122  1  0.42371530  0.82951040  0.51344718  1
  Cl  Cl123  1  0.46110165  0.95143991  0.89282017  1
  Cl  Cl124  1  0.82085292  0.84397520  0.10898641  1
  Cl  Cl125  1  0.85512048  0.83954466  0.36223600  1
  Cl  Cl126  1  0.93952880  0.87453546  0.56862336  1
  Cl  Cl127  1  0.82831301  0.90388386  0.93422668  1
  Cl  Cl128  1  0.89871326  0.11580585  0.17881004  1
  Cl  Cl129  1  0.85810455  0.08706030  0.36385992  1
  Cl  Cl130  1  0.88488838  0.11517186  0.64357575  1
  Cl  Cl131  1  0.88115644  0.13654258  0.89403265  1
  Cl  Cl132  1  0.37139887  0.15350922  0.15847465  1
  Cl  Cl133  1  0.33588046  0.08975453  0.37134769  1
  Cl  Cl134  1  0.35589801  0.11775226  0.56161750  1
  Cl  Cl135  1  0.36362853  0.14934955  0.89648096  1
  Cl  Cl136  1  0.12788046  0.32561718  0.14084515  1
  Cl  Cl137  1  0.13098171  0.37717481  0.38130450  1
  Cl  Cl138  1  0.16372176  0.37566829  0.56296864  1
  Cl  Cl139  1  0.14159607  0.30376746  0.92344761  1
  Cl  Cl140  1  0.89765133  0.60473821  0.02080958  1
  Cl  Cl141  1  0.84262269  0.52588853  0.37944146  1
  Cl  Cl142  1  0.85735542  0.62732862  0.61581931  1
  Cl  Cl143  1  0.87335883  0.64767070  0.85396195  1
  Cl  Cl144  1  0.61350951  0.35110391  0.18869036  1
  Cl  Cl145  1  0.53121577  0.50079825  0.38589512  1
  Cl  Cl146  1  0.64613519  0.38861202  0.64545408  1
  Cl  Cl147  1  0.78924704  0.35280131  0.90052330  1
  Cl  Cl148  1  0.40109284  0.68571615  0.18234066  1
  Cl  Cl149  1  0.32602014  0.61279616  0.32906738  1
  Cl  Cl150  1  0.37776589  0.57758061  0.64016910  1
  Cl  Cl151  1  0.38802955  0.63372954  0.85001733  1
  Cl  Cl152  1  0.08126005  0.83387697  0.10129444  1
  Cl  Cl153  1  0.14607139  0.84243541  0.34382418  1
  Cl  Cl154  1  0.18698020  0.90088641  0.66787066  1
  Cl  Cl155  1  0.27483591  0.85627374  0.84614929  1
  Cl  Cl156  1  0.55881506  0.84523017  0.02758693  1
  Cl  Cl157  1  0.58906353  0.93797380  0.40850711  1
  Cl  Cl158  1  0.68033320  0.87698998  0.62520358  1
  Cl  Cl159  1  0.65174373  0.80287891  0.84447143  1
