# generated using pymatgen
data_RbCaF3
_symmetry_space_group_name_H-M   'P 1'
_cell_length_a   12.77920993
_cell_length_b   12.77920993
_cell_length_c   18.07253200
_cell_angle_alpha   90.00000000
_cell_angle_beta   90.00000000
_cell_angle_gamma   90.00000000
_symmetry_Int_Tables_number   1
_chemical_formula_structural   RbCaF3
_chemical_formula_sum   'Rb32 Ca32 F96'
_cell_volume   2951.39278685
_cell_formula_units_Z   32
loop_
 _symmetry_equiv_pos_site_id
 _symmetry_equiv_pos_as_xyz
  1  'x, y, z'
loop_
 _atom_site_type_symbol
 _atom_site_label
 _atom_site_symmetry_multiplicity
 _atom_site_fract_x
 _atom_site_fract_y
 _atom_site_fract_z
 _atom_site_occupancy
  Ca  Ca0  1  -0.00058076  0.24925437  0.12523863  1
  Ca  Ca1  1  -0.00050707  0.25008054  0.37543134  1
  Ca  Ca2  1  -0.00068211  0.25087121  0.62536145  1
  Ca  Ca3  1  0.99934596  0.25000685  0.87536999  1
  Ca  Ca4  1  0.49942415  0.24909258  0.12530778  1
  Ca  Ca5  1  0.49942203  0.25003306  0.37538426  1
  Ca  Ca6  1  0.49934146  0.25071182  0.62524853  1
  Ca  Ca7  1  0.49949931  0.24995108  0.87541298  1
  Ca  Ca8  1  0.24940239  0.49909305  0.12533680  1
  Ca  Ca9  1  0.24951170  0.49992813  0.37552882  1
  Ca  Ca10  1  0.24941367  0.50078782  0.62539786  1
  Ca  Ca11  1  0.24947109  0.49987795  0.87543754  1
  Ca  Ca12  1  -0.00062036  0.74920086  0.12521904  1
  Ca  Ca13  1  -0.00056741  0.75004001  0.37544009  1
  Ca  Ca14  1  -0.00071803  0.75087013  0.62535030  1
  Ca  Ca15  1  -0.00066885  0.75001299  0.87531061  1
  Ca  Ca16  1  0.74935184  0.49914107  0.12535258  1
  Ca  Ca17  1  0.74951626  0.49999926  0.37534991  1
  Ca  Ca18  1  0.74940427  0.50077206  0.62529695  1
  Ca  Ca19  1  0.74947939  0.50001525  0.87549630  1
  Ca  Ca20  1  0.49936157  0.74914138  0.12529833  1
  Ca  Ca21  1  0.49934827  0.75004162  0.37542560  1
  Ca  Ca22  1  0.49926923  0.75073697  0.62529614  1
  Ca  Ca23  1  0.49942262  0.74992016  0.87543780  1
  Ca  Ca24  1  0.24945707  -0.00091618  0.12520771  1
  Ca  Ca25  1  0.24945712  -0.00005004  0.37535002  1
  Ca  Ca26  1  0.24937671  0.00078809  0.62528118  1
  Ca  Ca27  1  0.24942738  -0.00008494  0.87529306  1
  Ca  Ca28  1  0.74943159  -0.00085735  0.12526316  1
  Ca  Ca29  1  0.74950155  0.00004519  0.37526943  1
  Ca  Ca30  1  0.74933701  0.00069681  0.62523190  1
  Ca  Ca31  1  0.74935490  -0.00001965  0.87545002  1
  F  F32  1  0.02060954  0.24074621  0.00024970  1
  F  F33  1  -0.02085052  0.26059839  0.25033508  1
  F  F34  1  0.02012760  0.24005314  0.50041776  1
  F  F35  1  -0.02163598  0.25932510  0.75040585  1
  F  F36  1  0.52057560  0.24034920  0.00033586  1
  F  F37  1  0.47880273  0.26025152  0.25033072  1
  F  F38  1  0.52009900  0.23980544  0.50033845  1
  F  F39  1  0.47887234  0.25905263  0.75033705  1
  F  F40  1  0.22887816  0.51009496  0.00039843  1
  F  F41  1  0.27007265  0.49045341  0.25043847  1
  F  F42  1  0.22865239  0.50975736  0.50043363  1
  F  F43  1  0.27009598  0.48974144  0.75041385  1
  F  F44  1  0.02045218  0.74067432  0.00026748  1
  F  F45  1  -0.02097413  0.76011196  0.25032158  1
  F  F46  1  0.02003556  0.74032851  0.50043344  1
  F  F47  1  0.97826668  0.75916395  0.75031584  1
  F  F48  1  0.72868977  0.51068779  0.00045671  1
  F  F49  1  0.77037123  0.49007934  0.25035522  1
  F  F50  1  0.72863125  0.50979046  0.50028942  1
  F  F51  1  0.76976389  0.48931762  0.75038781  1
  F  F52  1  0.52063641  0.74049236  0.00036803  1
  F  F53  1  0.47857994  0.76037407  0.25034637  1
  F  F54  1  0.52036982  0.73988129  0.50037855  1
  F  F55  1  0.47870013  0.75895167  0.75037506  1
  F  F56  1  0.22868211  0.00984651  0.00026053  1
  F  F57  1  0.27029902  0.99048176  0.25028034  1
  F  F58  1  0.22828581  0.00968259  0.50029163  1
  F  F59  1  0.27031353  0.98965680  0.75029112  1
  F  F60  1  0.72867467  0.01032843  0.00038961  1
  F  F61  1  0.77056112  0.99033656  0.25028472  1
  F  F62  1  0.72866553  0.00957362  0.50021283  1
  F  F63  1  0.76985400  -0.01042172  0.75033162  1
  F  F64  1  0.12503204  0.12485284  0.14052837  1
  F  F65  1  0.11799927  0.11855217  0.35995775  1
  F  F66  1  0.12652016  0.12796061  0.64086781  1
  F  F67  1  0.13080892  0.13134931  0.86001762  1
  F  F68  1  0.62507358  0.12481474  0.14085724  1
  F  F69  1  0.61802665  0.11864044  0.35992581  1
  F  F70  1  0.62643584  0.12766623  0.64047416  1
  F  F71  1  0.63088779  0.13144925  0.86003481  1
  F  F72  1  0.37386645  0.37362607  0.10971785  1
  F  F73  1  0.38120627  0.38167854  0.39079974  1
  F  F74  1  0.37220977  0.37356147  0.60989939  1
  F  F75  1  0.36794770  0.36832448  0.89075147  1
  F  F76  1  0.12495644  0.62481125  0.14054783  1
  F  F77  1  0.11798751  0.61850158  0.36032641  1
  F  F78  1  0.12654656  0.62796836  0.64071835  1
  F  F79  1  0.13093024  0.63142737  0.86016112  1
  F  F80  1  0.87382717  0.37370418  0.10957385  1
  F  F81  1  0.88116956  0.38170608  0.39086628  1
  F  F82  1  0.87231449  0.37372927  0.60971810  1
  F  F83  1  0.86790156  0.36846166  0.89100454  1
  F  F84  1  0.62485771  0.62473757  0.14104994  1
  F  F85  1  0.61797440  0.61858652  0.35995104  1
  F  F86  1  0.62648501  0.62778213  0.64065914  1
  F  F87  1  0.63102706  0.63156203  0.86001541  1
  F  F88  1  0.37372399  0.87346888  0.10942178  1
  F  F89  1  0.38103811  0.88163117  0.39099094  1
  F  F90  1  0.37203990  0.87342569  0.60965004  1
  F  F91  1  0.36783437  0.86829993  0.89068836  1
  F  F92  1  0.87378291  0.87361965  0.10965258  1
  F  F93  1  0.88103134  0.88161203  0.39073713  1
  F  F94  1  0.87204940  0.87353152  0.60969653  1
  F  F95  1  0.86783779  0.86843662  0.89086686  1
  F  F96  1  0.87517240  0.12358501  0.11909891  1
  F  F97  1  0.86750575  0.13208267  0.38117562  1
  F  F98  1  0.87641883  0.12359233  0.61921952  1
  F  F99  1  0.88136452  0.11795222  0.88138654  1
  F  F100  1  0.37521147  0.12342462  0.11892509  1
  F  F101  1  0.36745593  0.13198002  0.38133188  1
  F  F102  1  0.37651236  0.12348588  0.61894830  1
  F  F103  1  0.38137044  0.11797166  0.88149105  1
  F  F104  1  0.12400175  0.37468921  0.13130392  1
  F  F105  1  0.13165445  0.36788248  0.36993740  1
  F  F106  1  0.12180802  0.37826144  0.63163879  1
  F  F107  1  0.11749262  0.38190560  0.86935522  1
  F  F108  1  0.87512300  0.62350552  0.11915699  1
  F  F109  1  0.86755095  0.63199670  0.38125730  1
  F  F110  1  0.87660535  0.62343834  0.61892535  1
  F  F111  1  0.88149817  0.61793269  0.88135636  1
  F  F112  1  0.62390517  0.37470504  0.13111024  1
  F  F113  1  0.63166825  0.36787547  0.36974991  1
  F  F114  1  0.62200501  0.37799071  0.63121519  1
  F  F115  1  0.61756434  0.38194880  0.86989827  1
  F  F116  1  0.37525548  0.62335028  0.11922779  1
  F  F117  1  0.36745899  0.63200542  0.38129886  1
  F  F118  1  0.37654612  0.62347483  0.61901400  1
  F  F119  1  0.38146163  0.61786393  0.88145765  1
  F  F120  1  0.12379290  0.87489673  0.13129177  1
  F  F121  1  0.13144303  0.86798145  0.36955442  1
  F  F122  1  0.12170336  0.87836790  0.63152042  1
  F  F123  1  0.11741320  0.88192609  0.86925481  1
  F  F124  1  0.62380406  0.87483034  0.13137987  1
  F  F125  1  0.63140166  0.86807522  0.36944793  1
  F  F126  1  0.62165557  0.87824289  0.63148526  1
  F  F127  1  0.61740846  0.88194643  0.86950945  1
  Rb  Rb128  1  -0.00184199  -0.00124928  -0.00001687  1
  Rb  Rb129  1  0.00045078  -0.00262542  0.24956891  1
  Rb  Rb130  1  -0.00144543  0.00215866  0.50114901  1
  Rb  Rb131  1  0.00074693  0.00191173  0.75053265  1
  Rb  Rb132  1  0.49790050  -0.00143969  0.00004617  1
  Rb  Rb133  1  0.50039172  -0.00261274  0.24970167  1
  Rb  Rb134  1  0.49883208  0.00216214  0.50109859  1
  Rb  Rb135  1  0.50115477  0.00171792  0.75050316  1
  Rb  Rb136  1  0.25023330  0.24696727  0.00102851  1
  Rb  Rb137  1  0.24779874  0.24895547  0.25085169  1
  Rb  Rb138  1  0.25056560  0.25047434  0.49987066  1
  Rb  Rb139  1  0.24870627  0.25305342  0.75006260  1
  Rb  Rb140  1  -0.00184610  0.49848694  0.00001017  1
  Rb  Rb141  1  0.00020533  0.49777765  0.24976317  1
  Rb  Rb142  1  -0.00122388  0.50227975  0.50130040  1
  Rb  Rb143  1  0.00093892  0.50171428  0.75059388  1
  Rb  Rb144  1  0.75009311  0.24720477  0.00115017  1
  Rb  Rb145  1  0.74823521  0.24882298  0.25085688  1
  Rb  Rb146  1  0.75054064  0.25084582  0.49976385  1
  Rb  Rb147  1  0.74864418  0.25287779  0.74978289  1
  Rb  Rb148  1  0.49806997  0.49839626  0.00012792  1
  Rb  Rb149  1  0.49999732  0.49764093  0.24968282  1
  Rb  Rb150  1  0.49880300  0.50222295  0.50118819  1
  Rb  Rb151  1  0.50117198  0.50163676  0.75062195  1
  Rb  Rb152  1  0.25004762  0.74698521  0.00079122  1
  Rb  Rb153  1  0.24792631  0.74869603  0.25075023  1
  Rb  Rb154  1  0.25031242  0.75061333  0.49998065  1
  Rb  Rb155  1  0.24868588  0.75301105  0.75009266  1
  Rb  Rb156  1  0.75019497  0.74698182  0.00101356  1
  Rb  Rb157  1  0.74799917  0.74895851  0.25074786  1
  Rb  Rb158  1  0.75062392  0.75054518  0.49976574  1
  Rb  Rb159  1  0.74821362  0.75327973  0.74990184  1
