# generated using pymatgen
data_RbCaBr3
_symmetry_space_group_name_H-M   'P 1'
_cell_length_a   16.23594103
_cell_length_b   16.23594103
_cell_length_c   22.96108700
_cell_angle_alpha   90.00000000
_cell_angle_beta   90.00000000
_cell_angle_gamma   90.00000000
_symmetry_Int_Tables_number   1
_chemical_formula_structural   RbCaBr3
_chemical_formula_sum   'Rb32 Ca32 Br96'
_cell_volume   6052.67527289
_cell_formula_units_Z   32
loop_
 _symmetry_equiv_pos_site_id
 _symmetry_equiv_pos_as_xyz
  1  'x, y, z'
loop_
 _atom_site_type_symbol
 _atom_site_label
 _atom_site_symmetry_multiplicity
 _atom_site_fract_x
 _atom_site_fract_y
 _atom_site_fract_z
 _atom_site_occupancy
  Br  Br0  1  0.10488748  0.14486366  0.98043216  1
  Br  Br1  1  0.10595836  0.14408604  0.27085915  1
  Br  Br2  1  0.10520854  0.14502020  0.48048092  1
  Br  Br3  1  0.10562619  0.14402339  0.77129005  1
  Br  Br4  1  0.60501356  0.14476901  0.98043309  1
  Br  Br5  1  0.60580225  0.14437388  0.27090734  1
  Br  Br6  1  0.60512916  0.14516656  0.48042214  1
  Br  Br7  1  0.60567024  0.14409713  0.77128853  1
  Br  Br8  1  0.39462821  0.35533643  0.02113772  1
  Br  Br9  1  0.39661323  0.35359667  0.23063059  1
  Br  Br10  1  0.39462167  0.35559701  0.52101273  1
  Br  Br11  1  0.39484884  0.35485178  0.73028080  1
  Br  Br12  1  0.10524411  0.64471343  0.98057860  1
  Br  Br13  1  0.10610558  0.64407689  0.27080907  1
  Br  Br14  1  0.10511891  0.64514217  0.48045219  1
  Br  Br15  1  0.10573671  0.64416369  0.77122558  1
  Br  Br16  1  0.89519779  0.35472721  0.02013351  1
  Br  Br17  1  0.89658532  0.35369363  0.23043552  1
  Br  Br18  1  0.89468257  0.35571561  0.52106648  1
  Br  Br19  1  0.89502850  0.35501835  0.73056050  1
  Br  Br20  1  0.60512139  0.64442713  0.98010491  1
  Br  Br21  1  0.60604514  0.64412179  0.27088021  1
  Br  Br22  1  0.60528309  0.64500088  0.48041687  1
  Br  Br23  1  0.60582987  0.64385683  0.77129348  1
  Br  Br24  1  0.39473541  0.85531167  0.02067590  1
  Br  Br25  1  0.39680481  0.85370468  0.23048200  1
  Br  Br26  1  0.39468318  0.85569079  0.52108696  1
  Br  Br27  1  0.39504928  0.85494479  0.73048251  1
  Br  Br28  1  0.89509475  0.85462141  0.02039316  1
  Br  Br29  1  0.89678760  0.85346104  0.23046524  1
  Br  Br30  1  0.89468504  0.85553004  0.52100212  1
  Br  Br31  1  0.89484122  0.85489638  0.73030667  1
  Br  Br32  1  0.85535324  0.10456355  0.02043330  1
  Br  Br33  1  0.85554134  0.10436581  0.23026322  1
  Br  Br34  1  0.85551053  0.10563431  0.52094782  1
  Br  Br35  1  0.85561871  0.10521854  0.72920844  1
  Br  Br36  1  0.35544082  0.10512309  0.02117785  1
  Br  Br37  1  0.35548544  0.10436799  0.23027438  1
  Br  Br38  1  0.35553796  0.10548587  0.52097748  1
  Br  Br39  1  0.35540015  0.10477284  0.73021828  1
  Br  Br40  1  0.14524673  0.39457470  0.98016207  1
  Br  Br41  1  0.14557331  0.39427011  0.27062746  1
  Br  Br42  1  0.14484798  0.39491966  0.48043728  1
  Br  Br43  1  0.14464190  0.39402762  0.77115707  1
  Br  Br44  1  0.85564478  0.60499736  0.02106128  1
  Br  Br45  1  0.85552302  0.60438586  0.23034846  1
  Br  Br46  1  0.85539292  0.60551048  0.52102774  1
  Br  Br47  1  0.85556848  0.60536958  0.72926935  1
  Br  Br48  1  0.64508658  0.39409161  0.97920339  1
  Br  Br49  1  0.64563130  0.39420875  0.27060867  1
  Br  Br50  1  0.64489533  0.39480077  0.47996711  1
  Br  Br51  1  0.64486418  0.39414017  0.77103890  1
  Br  Br52  1  0.35577307  0.60512164  0.02099932  1
  Br  Br53  1  0.35581956  0.60446973  0.22959767  1
  Br  Br54  1  0.35555592  0.60560827  0.52101432  1
  Br  Br55  1  0.35560899  0.60497147  0.72999745  1
  Br  Br56  1  0.14524218  0.89447736  0.98012639  1
  Br  Br57  1  0.14599259  0.89459093  0.27030438  1
  Br  Br58  1  0.14490821  0.89476056  0.47999931  1
  Br  Br59  1  0.14467877  0.89408767  0.77119241  1
  Br  Br60  1  0.64514212  0.89438725  0.98029215  1
  Br  Br61  1  0.64590935  0.89469470  0.27027919  1
  Br  Br62  1  0.64496645  0.89491623  0.48040466  1
  Br  Br63  1  0.64458722  0.89415225  0.77130152  1
  Br  Br64  1  0.03844494  0.00775559  0.12521177  1
  Br  Br65  1  0.96180054  0.99145804  0.37532931  1
  Br  Br66  1  0.03871731  0.00813451  0.62545693  1
  Br  Br67  1  0.96108962  0.99051511  0.87532675  1
  Br  Br68  1  0.53869380  0.00805195  0.12539185  1
  Br  Br69  1  0.46202513  0.99140358  0.37553562  1
  Br  Br70  1  0.53898161  0.00839766  0.62557489  1
  Br  Br71  1  0.46141124  0.99150139  0.87555827  1
  Br  Br72  1  0.21180345  0.25819507  0.12540968  1
  Br  Br73  1  0.28873630  0.24148832  0.37556890  1
  Br  Br74  1  0.21124264  0.25827504  0.62557887  1
  Br  Br75  1  0.28920999  0.24053191  0.87562500  1
  Br  Br76  1  0.03846707  0.50775519  0.12523060  1
  Br  Br77  1  0.96173903  0.49165360  0.37536807  1
  Br  Br78  1  0.03916084  0.50863652  0.62557469  1
  Br  Br79  1  0.96164100  0.49176859  0.87535138  1
  Br  Br80  1  0.71233227  0.25788578  0.12525351  1
  Br  Br81  1  0.78892957  0.24153373  0.37548680  1
  Br  Br82  1  0.71110046  0.25891985  0.62564376  1
  Br  Br83  1  0.78914134  0.24007119  0.87523926  1
  Br  Br84  1  0.53948129  0.50781591  0.12536004  1
  Br  Br85  1  0.46176793  0.49171759  0.37530617  1
  Br  Br86  1  0.53862593  0.50811934  0.62544218  1
  Br  Br87  1  0.46081205  0.49058515  0.87543809  1
  Br  Br88  1  0.21204456  0.75794134  0.12529150  1
  Br  Br89  1  0.28883774  0.74147374  0.37548904  1
  Br  Br90  1  0.21131967  0.75869678  0.62564784  1
  Br  Br91  1  0.28918641  0.74045011  0.87549268  1
  Br  Br92  1  0.71206922  0.75796780  0.12526608  1
  Br  Br93  1  0.78856563  0.74157447  0.37551744  1
  Br  Br94  1  0.71093373  0.75880172  0.62566352  1
  Br  Br95  1  0.78905737  0.74049074  0.87542263  1
  Ca  Ca96  1  0.00023688  0.99959447  0.00009050  1
  Ca  Ca97  1  0.00064348  0.99946318  0.25029869  1
  Ca  Ca98  1  0.00025350  0.00005698  0.50035146  1
  Ca  Ca99  1  0.00018641  -0.00041867  0.75035151  1
  Ca  Ca100  1  0.50019758  0.99973547  0.00039597  1
  Ca  Ca101  1  0.50057353  0.99959028  0.25043552  1
  Ca  Ca102  1  0.50033014  0.00018659  0.50061337  1
  Ca  Ca103  1  0.50019053  -0.00022072  0.75058770  1
  Ca  Ca104  1  0.25029522  0.24970083  0.00041994  1
  Ca  Ca105  1  0.25067261  0.24951730  0.25034042  1
  Ca  Ca106  1  0.25010827  0.25001616  0.50059831  1
  Ca  Ca107  1  0.25005278  0.24960423  0.75062536  1
  Ca  Ca108  1  0.00021612  0.49967620  0.00022997  1
  Ca  Ca109  1  0.00065882  0.49951082  0.25031772  1
  Ca  Ca110  1  0.00009731  0.50015084  0.50050278  1
  Ca  Ca111  1  0.00026362  0.49985717  0.75034100  1
  Ca  Ca112  1  0.75030487  0.24949960  0.00007976  1
  Ca  Ca113  1  0.75078597  0.24946577  0.25038343  1
  Ca  Ca114  1  0.75019671  0.25014248  0.50047859  1
  Ca  Ca115  1  0.75022016  0.24952031  0.75037342  1
  Ca  Ca116  1  0.50031235  0.49943341  0.00026182  1
  Ca  Ca117  1  0.50066793  0.49942013  0.25021598  1
  Ca  Ca118  1  0.50017646  0.50000997  0.50034503  1
  Ca  Ca119  1  0.50028788  0.49954551  0.75052936  1
  Ca  Ca120  1  0.25038585  0.74956200  0.00032500  1
  Ca  Ca121  1  0.25089567  0.74952502  0.25027707  1
  Ca  Ca122  1  0.25018661  0.75017457  0.50055420  1
  Ca  Ca123  1  0.25031142  0.74973080  0.75053441  1
  Ca  Ca124  1  0.75026042  0.74948808  0.00031991  1
  Ca  Ca125  1  0.75076784  0.74953797  0.25029591  1
  Ca  Ca126  1  0.75016894  0.75011396  0.50062855  1
  Ca  Ca127  1  0.75014679  0.74973028  0.75044110  1
  Rb  Rb128  1  0.99412677  0.22400348  0.12493625  1
  Rb  Rb129  1  0.00711288  0.27532304  0.37502675  1
  Rb  Rb130  1  0.99319281  0.22448569  0.62528705  1
  Rb  Rb131  1  0.00641965  0.27502355  0.87528729  1
  Rb  Rb132  1  0.49412392  0.22424681  0.12487780  1
  Rb  Rb133  1  0.50681837  0.27524440  0.37500486  1
  Rb  Rb134  1  0.49350498  0.22471304  0.62537700  1
  Rb  Rb135  1  0.50672490  0.27459090  0.87519313  1
  Rb  Rb136  1  0.25663026  0.47456325  0.12504947  1
  Rb  Rb137  1  0.24366382  0.52530865  0.37540640  1
  Rb  Rb138  1  0.25693365  0.47449669  0.62517552  1
  Rb  Rb139  1  0.24330128  0.52477735  0.87519954  1
  Rb  Rb140  1  0.99409387  0.72411900  0.12478401  1
  Rb  Rb141  1  0.00682677  0.77505096  0.37486833  1
  Rb  Rb142  1  0.99352614  0.72490555  0.62528797  1
  Rb  Rb143  1  0.00665797  0.77446378  0.87530601  1
  Rb  Rb144  1  0.75727375  0.47408210  0.12543533  1
  Rb  Rb145  1  0.74372481  0.52538538  0.37528054  1
  Rb  Rb146  1  0.75662992  0.47493544  0.62526405  1
  Rb  Rb147  1  0.74383911  0.52478272  0.87500507  1
  Rb  Rb148  1  0.49404766  0.72391967  0.12467605  1
  Rb  Rb149  1  0.50719797  0.77509147  0.37498077  1
  Rb  Rb150  1  0.49316395  0.72451142  0.62527641  1
  Rb  Rb151  1  0.50659065  0.77484007  0.87531520  1
  Rb  Rb152  1  0.25675571  0.97417640  0.12538217  1
  Rb  Rb153  1  0.24399145  0.02541235  0.37529791  1
  Rb  Rb154  1  0.25676671  0.97495953  0.62526499  1
  Rb  Rb155  1  0.24372125  0.02455316  0.87535100  1
  Rb  Rb156  1  0.75676810  0.97423036  0.12523416  1
  Rb  Rb157  1  0.74378174  0.02530072  0.37550654  1
  Rb  Rb158  1  0.75676610  0.97487889  0.62526093  1
  Rb  Rb159  1  0.74366965  0.02423996  0.87544461  1
