# generated using pymatgen
data_RbCaCl3
_symmetry_space_group_name_H-M   'P 1'
_cell_length_a   15.35996018
_cell_length_b   15.35996018
_cell_length_c   21.72226300
_cell_angle_alpha   90.00000000
_cell_angle_beta   90.00000000
_cell_angle_gamma   90.00000000
_symmetry_Int_Tables_number   1
_chemical_formula_structural   RbCaCl3
_chemical_formula_sum   'Rb32 Ca32 Cl96'
_cell_volume   5124.89824660
_cell_formula_units_Z   32
loop_
 _symmetry_equiv_pos_site_id
 _symmetry_equiv_pos_as_xyz
  1  'x, y, z'
loop_
 _atom_site_type_symbol
 _atom_site_label
 _atom_site_symmetry_multiplicity
 _atom_site_fract_x
 _atom_site_fract_y
 _atom_site_fract_z
 _atom_site_occupancy
  Ca  Ca0  1  0.99722242  0.99910101  0.00011289  1
  Ca  Ca1  1  0.00244323  0.00061757  0.25042316  1
  Ca  Ca2  1  0.00278565  0.00067435  0.50003620  1
  Ca  Ca3  1  0.99723567  0.99950069  0.75044841  1
  Ca  Ca4  1  0.49712682  0.99906391  0.00011765  1
  Ca  Ca5  1  0.50290081  0.00061940  0.25045224  1
  Ca  Ca6  1  0.50333666  0.00077762  0.49993405  1
  Ca  Ca7  1  0.49710119  0.99945192  0.74985615  1
  Ca  Ca8  1  0.24723063  0.24931761  0.00000644  1
  Ca  Ca9  1  0.25308974  0.25105448  0.25039043  1
  Ca  Ca10  1  0.25348292  0.25079797  0.50038343  1
  Ca  Ca11  1  0.24729318  0.24953644  0.75035533  1
  Ca  Ca12  1  0.99695509  0.49928377  0.00033600  1
  Ca  Ca13  1  0.00286684  0.50072973  0.25079377  1
  Ca  Ca14  1  0.00321587  0.50081830  0.50023258  1
  Ca  Ca15  1  0.99701986  0.49984564  0.75036652  1
  Ca  Ca16  1  0.74766883  0.24932758  0.00006130  1
  Ca  Ca17  1  0.75308680  0.25120711  0.25050241  1
  Ca  Ca18  1  0.75329998  0.25084846  0.49994190  1
  Ca  Ca19  1  0.74768849  0.24950665  0.75022980  1
  Ca  Ca20  1  0.49705320  0.49919331  0.00010908  1
  Ca  Ca21  1  0.50245833  0.50068765  0.25053862  1
  Ca  Ca22  1  0.50315400  0.50068294  0.50018246  1
  Ca  Ca23  1  0.49725707  0.49974899  0.75048293  1
  Ca  Ca24  1  0.24770622  0.74961709  0.00016520  1
  Ca  Ca25  1  0.25282703  0.75108155  0.25073277  1
  Ca  Ca26  1  0.25328116  0.75082179  0.50009607  1
  Ca  Ca27  1  0.24752769  0.74971377  0.75043265  1
  Ca  Ca28  1  0.74724049  0.74947048  0.00008798  1
  Ca  Ca29  1  0.75312617  0.75098884  0.25024278  1
  Ca  Ca30  1  0.75352406  0.75067562  0.50036312  1
  Ca  Ca31  1  0.74730536  0.74939817  0.75055486  1
  Cl  Cl32  1  0.10670323  0.14009274  0.98061426  1
  Cl  Cl33  1  0.14432175  0.10897658  0.26887546  1
  Cl  Cl34  1  0.14235571  0.11099162  0.48106346  1
  Cl  Cl35  1  0.10553644  0.14155167  0.76951364  1
  Cl  Cl36  1  0.60582474  0.14123658  0.98219136  1
  Cl  Cl37  1  0.64346390  0.11033673  0.26915033  1
  Cl  Cl38  1  0.64230334  0.11152227  0.48031972  1
  Cl  Cl39  1  0.60542461  0.14176914  0.76836951  1
  Cl  Cl40  1  0.38767866  0.35916004  0.01930658  1
  Cl  Cl41  1  0.36164246  0.39155621  0.23186658  1
  Cl  Cl42  1  0.36434617  0.38927063  0.51886921  1
  Cl  Cl43  1  0.38805318  0.35925812  0.73123524  1
  Cl  Cl44  1  0.10609869  0.64118538  0.98249468  1
  Cl  Cl45  1  0.14344460  0.61011657  0.26988315  1
  Cl  Cl46  1  0.14236024  0.61145271  0.48067175  1
  Cl  Cl47  1  0.10513506  0.64228818  0.76876351  1
  Cl  Cl48  1  0.88849647  0.35849537  0.01793244  1
  Cl  Cl49  1  0.86221853  0.39128178  0.23147273  1
  Cl  Cl50  1  0.86468340  0.38878469  0.51923245  1
  Cl  Cl51  1  0.88841651  0.35889258  0.73201852  1
  Cl  Cl52  1  0.60668509  0.64005641  0.98064571  1
  Cl  Cl53  1  0.64391353  0.60933976  0.26899684  1
  Cl  Cl54  1  0.64250965  0.61105337  0.48107335  1
  Cl  Cl55  1  0.60583264  0.64121151  0.76991240  1
  Cl  Cl56  1  0.38932190  0.85773527  0.01748092  1
  Cl  Cl57  1  0.36198212  0.89122388  0.23167438  1
  Cl  Cl58  1  0.36465601  0.88880374  0.51927613  1
  Cl  Cl59  1  0.38889301  0.85829830  0.73179175  1
  Cl  Cl60  1  0.88845100  0.85856288  0.01921019  1
  Cl  Cl61  1  0.86136555  0.89174286  0.23172364  1
  Cl  Cl62  1  0.86398852  0.88931631  0.51895598  1
  Cl  Cl63  1  0.88816785  0.85896103  0.73145456  1
  Cl  Cl64  1  0.85518163  0.10654392  0.98353717  1
  Cl  Cl65  1  0.89470582  0.14318975  0.26692512  1
  Cl  Cl66  1  0.89296196  0.14102050  0.48285184  1
  Cl  Cl67  1  0.85497819  0.10682116  0.76662086  1
  Cl  Cl68  1  0.35490536  0.10649583  0.98610033  1
  Cl  Cl69  1  0.39540077  0.14356052  0.26434345  1
  Cl  Cl70  1  0.39297509  0.14074524  0.48443552  1
  Cl  Cl71  1  0.35454657  0.10652559  0.76461433  1
  Cl  Cl72  1  0.13833406  0.39014497  0.01300673  1
  Cl  Cl73  1  0.11163289  0.36004044  0.23749638  1
  Cl  Cl74  1  0.11418603  0.36225274  0.51443152  1
  Cl  Cl75  1  0.13886879  0.39100889  0.73687629  1
  Cl  Cl76  1  0.85519233  0.60709076  0.98605309  1
  Cl  Cl77  1  0.89487480  0.64305968  0.26491856  1
  Cl  Cl78  1  0.89332519  0.64107597  0.48482869  1
  Cl  Cl79  1  0.85441532  0.60658610  0.76535778  1
  Cl  Cl80  1  0.63783084  0.38930801  0.01571141  1
  Cl  Cl81  1  0.61242611  0.36100539  0.23397736  1
  Cl  Cl82  1  0.61478198  0.36285176  0.51696902  1
  Cl  Cl83  1  0.63812178  0.38979273  0.73432108  1
  Cl  Cl84  1  0.35551266  0.60705126  0.98348978  1
  Cl  Cl85  1  0.39453973  0.64300195  0.26712951  1
  Cl  Cl86  1  0.39314633  0.64102582  0.48296307  1
  Cl  Cl87  1  0.35466977  0.60673654  0.76697433  1
  Cl  Cl88  1  0.13848440  0.88992608  0.01601916  1
  Cl  Cl89  1  0.11185437  0.86051517  0.23444590  1
  Cl  Cl90  1  0.11429794  0.86261449  0.51638875  1
  Cl  Cl91  1  0.13859690  0.89049327  0.73431870  1
  Cl  Cl92  1  0.63898159  0.89063905  0.01305866  1
  Cl  Cl93  1  0.61169347  0.86002552  0.23713880  1
  Cl  Cl94  1  0.61402795  0.86190768  0.51399941  1
  Cl  Cl95  1  0.63881419  0.89064711  0.73628142  1
  Cl  Cl96  1  0.00384388  0.03336372  0.12515317  1
  Cl  Cl97  1  0.99245868  0.96662468  0.37516487  1
  Cl  Cl98  1  0.00227436  0.03367213  0.62536406  1
  Cl  Cl99  1  0.00310029  0.96479418  0.87519797  1
  Cl  Cl100  1  0.50667995  0.03026782  0.12518934  1
  Cl  Cl101  1  0.49160391  0.96830370  0.37514445  1
  Cl  Cl102  1  0.50469697  0.03229166  0.62504538  1
  Cl  Cl103  1  0.50128685  0.96773900  0.87491080  1
  Cl  Cl104  1  0.24256605  0.21972285  0.12530360  1
  Cl  Cl105  1  0.24948096  0.28300717  0.37538624  1
  Cl  Cl106  1  0.24242141  0.21832815  0.62528157  1
  Cl  Cl107  1  0.25998472  0.28132054  0.87516969  1
  Cl  Cl108  1  0.00767152  0.53029091  0.12540877  1
  Cl  Cl109  1  0.99119134  0.46814778  0.37545448  1
  Cl  Cl110  1  0.00409050  0.53213802  0.62545301  1
  Cl  Cl111  1  0.00112414  0.46784272  0.87529310  1
  Cl  Cl112  1  0.74745150  0.21732317  0.12533284  1
  Cl  Cl113  1  0.74658918  0.28625683  0.37516772  1
  Cl  Cl114  1  0.74588729  0.21657264  0.62508016  1
  Cl  Cl115  1  0.75710073  0.28265237  0.87513671  1
  Cl  Cl116  1  0.50463505  0.53325737  0.12519603  1
  Cl  Cl117  1  0.49335179  0.46633707  0.37528831  1
  Cl  Cl118  1  0.50247516  0.53400097  0.62549662  1
  Cl  Cl119  1  0.50317646  0.46478331  0.87517579  1
  Cl  Cl120  1  0.24694215  0.71740119  0.12550467  1
  Cl  Cl121  1  0.24686215  0.78593683  0.37540070  1
  Cl  Cl122  1  0.24516278  0.71662977  0.62522471  1
  Cl  Cl123  1  0.25674657  0.78327537  0.87527468  1
  Cl  Cl124  1  0.74254963  0.71884624  0.12530799  1
  Cl  Cl125  1  0.74944672  0.78305686  0.37530597  1
  Cl  Cl126  1  0.74246437  0.71832426  0.62536125  1
  Cl  Cl127  1  0.75961319  0.78188830  0.87529231  1
  Rb  Rb128  1  0.00064672  0.25262725  0.12793431  1
  Rb  Rb129  1  0.02235901  0.24710697  0.37564597  1
  Rb  Rb130  1  0.00386618  0.25295273  0.62387480  1
  Rb  Rb131  1  0.97877592  0.24612332  0.87571008  1
  Rb  Rb132  1  0.50353658  0.25026410  0.12575000  1
  Rb  Rb133  1  0.52143287  0.24586234  0.37506695  1
  Rb  Rb134  1  0.50709436  0.25198571  0.62600504  1
  Rb  Rb135  1  0.48021525  0.24509452  0.87537738  1
  Rb  Rb136  1  0.24794420  0.49784492  0.12337284  1
  Rb  Rb137  1  0.27090079  0.50447994  0.37579272  1
  Rb  Rb138  1  0.25268077  0.49751901  0.62775100  1
  Rb  Rb139  1  0.22790353  0.50240944  0.87549471  1
  Rb  Rb140  1  0.00415252  0.74956625  0.12539249  1
  Rb  Rb141  1  0.02092478  0.74614970  0.37548197  1
  Rb  Rb142  1  0.00677291  0.75185174  0.62565544  1
  Rb  Rb143  1  0.97956286  0.74481997  0.87603835  1
  Rb  Rb144  1  0.74489832  0.49926132  0.12564296  1
  Rb  Rb145  1  0.77037332  0.50583375  0.37542606  1
  Rb  Rb146  1  0.75059138  0.49877999  0.62618813  1
  Rb  Rb147  1  0.72833698  0.50374027  0.87588419  1
  Rb  Rb148  1  0.50071394  0.75232672  0.12781114  1
  Rb  Rb149  1  0.52244778  0.74734004  0.37564382  1
  Rb  Rb150  1  0.50422323  0.75297903  0.62354453  1
  Rb  Rb151  1  0.47833726  0.74620498  0.87576308  1
  Rb  Rb152  1  0.24583483  0.00010745  0.12555605  1
  Rb  Rb153  1  0.27085414  0.00581961  0.37569029  1
  Rb  Rb154  1  0.25043597  0.99875346  0.62580419  1
  Rb  Rb155  1  0.22851242  0.00456214  0.87538577  1
  Rb  Rb156  1  0.74864820  0.99829982  0.12298444  1
  Rb  Rb157  1  0.77060487  0.00407287  0.37504722  1
  Rb  Rb158  1  0.75292454  0.99757381  0.62744920  1
  Rb  Rb159  1  0.72718743  0.00290905  0.87471030  1
