# generated using pymatgen
data_RbCaI3
_symmetry_space_group_name_H-M   'P 1'
_cell_length_a   17.53550713
_cell_length_b   17.53550713
_cell_length_c   24.79895100
_cell_angle_alpha   90.00000000
_cell_angle_beta   90.00000000
_cell_angle_gamma   90.00000000
_symmetry_Int_Tables_number   1
_chemical_formula_structural   RbCaI3
_chemical_formula_sum   'Rb32 Ca32 I96'
_cell_volume   7625.52889048
_cell_formula_units_Z   32
loop_
 _symmetry_equiv_pos_site_id
 _symmetry_equiv_pos_as_xyz
  1  'x, y, z'
loop_
 _atom_site_type_symbol
 _atom_site_label
 _atom_site_symmetry_multiplicity
 _atom_site_fract_x
 _atom_site_fract_y
 _atom_site_fract_z
 _atom_site_occupancy
  Ca  Ca0  1  0.99778814  0.99497284  0.99805571  1
  Ca  Ca1  1  0.00013978  0.00251974  0.24831024  1
  Ca  Ca2  1  0.00160125  0.00716247  0.50128250  1
  Ca  Ca3  1  0.99963503  0.99939725  0.74991288  1
  Ca  Ca4  1  0.49285821  0.99756252  0.99982130  1
  Ca  Ca5  1  0.50110067  0.00275763  0.25149023  1
  Ca  Ca6  1  0.50483771  0.00403204  0.50034627  1
  Ca  Ca7  1  0.49992619  0.99992134  0.75015182  1
  Ca  Ca8  1  0.24793962  0.24423155  0.99930589  1
  Ca  Ca9  1  0.25257600  0.24949886  0.25127136  1
  Ca  Ca10  1  0.25392085  0.25529738  0.50018855  1
  Ca  Ca11  1  0.24917852  0.24956321  0.75014748  1
  Ca  Ca12  1  0.99315707  0.49826755  0.99940767  1
  Ca  Ca13  1  0.00173546  0.49920755  0.25021483  1
  Ca  Ca14  1  0.00758066  0.50214856  0.50177645  1
  Ca  Ca15  1  0.99935540  0.49948954  0.75051699  1
  Ca  Ca16  1  0.74471148  0.24884733  0.99867276  1
  Ca  Ca17  1  0.75068624  0.25025291  0.24931995  1
  Ca  Ca18  1  0.75429459  0.25206277  0.50087684  1
  Ca  Ca19  1  0.74929500  0.24921329  0.74972163  1
  Ca  Ca20  1  0.49717575  0.49512763  0.99955191  1
  Ca  Ca21  1  0.50113996  0.49986232  0.25035453  1
  Ca  Ca22  1  0.50281894  0.50500198  0.50077527  1
  Ca  Ca23  1  0.49941266  0.50033109  0.75016185  1
  Ca  Ca24  1  0.24445601  0.74788060  0.99925887  1
  Ca  Ca25  1  0.25217264  0.74917682  0.24880611  1
  Ca  Ca26  1  0.25640602  0.75163594  0.50273602  1
  Ca  Ca27  1  0.25015552  0.74970829  0.75045570  1
  Ca  Ca28  1  0.74822250  0.74258372  0.99917369  1
  Ca  Ca29  1  0.75076987  0.75081371  0.25018852  1
  Ca  Ca30  1  0.75134077  0.75562404  0.50150756  1
  Ca  Ca31  1  0.75023179  0.74967238  0.75068692  1
  I  I32  1  0.13868982  0.10344115  0.97402801  1
  I  I33  1  0.15156068  0.10025453  0.26620653  1
  I  I34  1  0.15134841  0.10649799  0.48086356  1
  I  I35  1  0.10077209  0.14785260  0.77292822  1
  I  I36  1  0.63934050  0.10215373  0.02243672  1
  I  I37  1  0.64577312  0.10619874  0.22478727  1
  I  I38  1  0.65192644  0.10580502  0.52339410  1
  I  I39  1  0.60082536  0.14814022  0.72661462  1
  I  I40  1  0.34899613  0.39252889  0.01911584  1
  I  I41  1  0.35110144  0.39960985  0.23175305  1
  I  I42  1  0.35976072  0.39915180  0.52592436  1
  I  I43  1  0.39638451  0.35282678  0.72781706  1
  I  I44  1  0.14063957  0.60022260  0.02021570  1
  I  I45  1  0.14853330  0.60211091  0.23134675  1
  I  I46  1  0.14824988  0.61099243  0.52735189  1
  I  I47  1  0.10224876  0.64691430  0.72756910  1
  I  I48  1  0.85278061  0.38936823  0.97287877  1
  I  I49  1  0.85462403  0.39728572  0.27264623  1
  I  I50  1  0.85926792  0.39977059  0.47944806  1
  I  I51  1  0.89719127  0.35131553  0.77289375  1
  I  I52  1  0.63892395  0.60299672  0.97400271  1
  I  I53  1  0.65039222  0.60270278  0.26930561  1
  I  I54  1  0.65294195  0.60598161  0.48200086  1
  I  I55  1  0.60144787  0.64848212  0.77290495  1
  I  I56  1  0.35278767  0.88925142  0.97342651  1
  I  I57  1  0.35604653  0.89646373  0.27292745  1
  I  I58  1  0.35641040  0.90158640  0.47892603  1
  I  I59  1  0.39867898  0.85144888  0.77251532  1
  I  I60  1  0.85152189  0.88971595  0.02104706  1
  I  I61  1  0.85842394  0.89318399  0.22547838  1
  I  I62  1  0.85527260  0.90236895  0.52125712  1
  I  I63  1  0.89897429  0.85044489  0.72744246  1
  I  I64  1  0.88995477  0.14052234  0.01195533  1
  I  I65  1  0.90397757  0.15422341  0.24165742  1
  I  I66  1  0.90846519  0.15962129  0.51290535  1
  I  I67  1  0.85648309  0.10626940  0.72428331  1
  I  I68  1  0.38401414  0.13419966  0.02987002  1
  I  I69  1  0.39636798  0.14547573  0.22555747  1
  I  I70  1  0.39821590  0.14801577  0.52434632  1
  I  I71  1  0.34840214  0.09856604  0.73265028  1
  I  I72  1  0.10421346  0.35497799  0.97914659  1
  I  I73  1  0.10721324  0.35569692  0.27332020  1
  I  I74  1  0.11548427  0.36510591  0.47188169  1
  I  I75  1  0.15078784  0.40110851  0.76846582  1
  I  I76  1  0.88415603  0.63423489  0.03182573  1
  I  I77  1  0.89491209  0.64309379  0.22883898  1
  I  I78  1  0.89666809  0.64636120  0.52106718  1
  I  I79  1  0.84768455  0.59719473  0.73168716  1
  I  I80  1  0.59208467  0.34294968  0.98666703  1
  I  I81  1  0.59954941  0.34840147  0.25796048  1
  I  I82  1  0.60721831  0.35600058  0.48768400  1
  I  I83  1  0.64194129  0.39211225  0.77442001  1
  I  I84  1  0.39104853  0.64218054  0.01230590  1
  I  I85  1  0.40386087  0.65291227  0.24355201  1
  I  I86  1  0.40982107  0.65945769  0.51288032  1
  I  I87  1  0.35701459  0.60746332  0.72389273  1
  I  I88  1  0.09269266  0.84295895  0.98575705  1
  I  I89  1  0.10324941  0.85217293  0.26211211  1
  I  I90  1  0.10644222  0.85703174  0.48605526  1
  I  I91  1  0.14311186  0.89289417  0.77521927  1
  I  I92  1  0.60668284  0.85597880  0.97973605  1
  I  I93  1  0.61119548  0.86105721  0.27263943  1
  I  I94  1  0.61029493  0.86083874  0.47361690  1
  I  I95  1  0.65203060  0.90203872  0.76877606  1
  I  I96  1  0.04052315  0.00105126  0.12310430  1
  I  I97  1  0.96732961  0.99655205  0.37496629  1
  I  I98  1  0.04517360  0.00365526  0.62548917  1
  I  I99  1  0.95267600  0.99393960  0.87364456  1
  I  I100  1  0.49216779  0.95317289  0.12599849  1
  I  I101  1  0.51606728  0.04547229  0.37532801  1
  I  I102  1  0.50293249  0.95608919  0.62493191  1
  I  I103  1  0.49761211  0.04379207  0.87559952  1
  I  I104  1  0.20554627  0.24437898  0.12534479  1
  I  I105  1  0.29471314  0.26105425  0.37529524  1
  I  I106  1  0.20589625  0.25083305  0.62506154  1
  I  I107  1  0.29385696  0.24658167  0.87502785  1
  I  I108  1  0.99327900  0.45366445  0.12568879  1
  I  I109  1  0.00811890  0.54358295  0.37559890  1
  I  I110  1  0.00297362  0.45535725  0.62534242  1
  I  I111  1  0.99609451  0.54485713  0.87519720  1
  I  I112  1  0.75496462  0.29204808  0.12372006  1
  I  I113  1  0.74949665  0.21127537  0.37535332  1
  I  I114  1  0.75480768  0.29547058  0.62551734  1
  I  I115  1  0.74230709  0.20367846  0.87400803  1
  I  I116  1  0.53880284  0.50512712  0.12447595  1
  I  I117  1  0.46312654  0.49700790  0.37601406  1
  I  I118  1  0.54623516  0.50525515  0.62606772  1
  I  I119  1  0.45371318  0.49519893  0.87416116  1
  I  I120  1  0.25188539  0.79017894  0.12442370  1
  I  I121  1  0.24605254  0.71649934  0.37633492  1
  I  I122  1  0.25294095  0.79731149  0.62637273  1
  I  I123  1  0.24428988  0.70400528  0.87435249  1
  I  I124  1  0.70495256  0.74225629  0.12551186  1
  I  I125  1  0.79438837  0.75860564  0.37520839  1
  I  I126  1  0.70747576  0.75285336  0.62571154  1
  I  I127  1  0.79492431  0.74586824  0.87526861  1
  Rb  Rb128  1  0.99248162  0.24033891  0.12102949  1
  Rb  Rb129  1  0.97357590  0.25224586  0.37715541  1
  Rb  Rb130  1  0.98866380  0.23852562  0.64644964  1
  Rb  Rb131  1  0.97798446  0.22856288  0.88699632  1
  Rb  Rb132  1  0.52771163  0.25197476  0.12351505  1
  Rb  Rb133  1  0.50604128  0.25853003  0.37598505  1
  Rb  Rb134  1  0.52108419  0.27583689  0.61488459  1
  Rb  Rb135  1  0.51091057  0.26155223  0.85422985  1
  Rb  Rb136  1  0.21530839  0.46499655  0.12439454  1
  Rb  Rb137  1  0.24083426  0.48095974  0.36451660  1
  Rb  Rb138  1  0.23074890  0.47863996  0.63677654  1
  Rb  Rb139  1  0.23716915  0.48767217  0.89720582  1
  Rb  Rb140  1  0.00593402  0.77466093  0.12314154  1
  Rb  Rb141  1  0.00596324  0.75544194  0.37553330  1
  Rb  Rb142  1  0.02442071  0.77039258  0.61478593  1
  Rb  Rb143  1  0.01239421  0.76122259  0.85397509  1
  Rb  Rb144  1  0.76181228  0.51548780  0.13831225  1
  Rb  Rb145  1  0.78582951  0.53690122  0.37598617  1
  Rb  Rb146  1  0.76308375  0.51194093  0.60316556  1
  Rb  Rb147  1  0.76780223  0.51874070  0.86341276  1
  Rb  Rb148  1  0.49151701  0.73913105  0.12309882  1
  Rb  Rb149  1  0.47390667  0.75188092  0.37579159  1
  Rb  Rb150  1  0.49026981  0.73888569  0.64612968  1
  Rb  Rb151  1  0.47840065  0.72871274  0.88719863  1
  Rb  Rb152  1  0.26505146  0.01625217  0.13639646  1
  Rb  Rb153  1  0.21610323  0.96934820  0.37484020  1
  Rb  Rb154  1  0.26311740  0.01567041  0.60359694  1
  Rb  Rb155  1  0.26938059  0.01973072  0.86422321  1
  Rb  Rb156  1  0.71353930  0.96260281  0.12455496  1
  Rb  Rb157  1  0.73477658  0.98799577  0.38235297  1
  Rb  Rb158  1  0.72932092  0.97992950  0.63660286  1
  Rb  Rb159  1  0.73696583  0.98832575  0.89753847  1
