# generated using pymatgen
data_RbCdI3
_symmetry_space_group_name_H-M   'P 1'
_cell_length_a   17.02299896
_cell_length_b   17.02299896
_cell_length_c   24.07415700
_cell_angle_alpha   90.00000000
_cell_angle_beta   90.00000000
_cell_angle_gamma   90.00000000
_symmetry_Int_Tables_number   1
_chemical_formula_structural   RbCdI3
_chemical_formula_sum   'Rb32 Cd32 I96'
_cell_volume   6976.26924572
_cell_formula_units_Z   32
loop_
 _symmetry_equiv_pos_site_id
 _symmetry_equiv_pos_as_xyz
  1  'x, y, z'
loop_
 _atom_site_type_symbol
 _atom_site_label
 _atom_site_symmetry_multiplicity
 _atom_site_fract_x
 _atom_site_fract_y
 _atom_site_fract_z
 _atom_site_occupancy
  Cd  Cd0  1  0.98554207  0.98493544  0.95573812  1
  Cd  Cd1  1  0.99957196  0.05230442  0.23240960  1
  Cd  Cd2  1  0.00972114  0.95708743  0.51930377  1
  Cd  Cd3  1  0.99400667  0.00611197  0.74801839  1
  Cd  Cd4  1  0.46244151  0.97306892  0.02622426  1
  Cd  Cd5  1  0.49632076  0.00442005  0.24799125  1
  Cd  Cd6  1  0.52211406  0.99240626  0.48597585  1
  Cd  Cd7  1  0.50326922  0.01408959  0.74308044  1
  Cd  Cd8  1  0.29856568  0.23380113  0.02343361  1
  Cd  Cd9  1  0.26150681  0.22065881  0.25164164  1
  Cd  Cd10  1  0.23092538  0.29235748  0.46047351  1
  Cd  Cd11  1  0.21105665  0.23740789  0.72238026  1
  Cd  Cd12  1  0.01357499  0.51637385  0.04214412  1
  Cd  Cd13  1  0.01658029  0.46617191  0.26091678  1
  Cd  Cd14  1  0.99722289  0.53016834  0.47738850  1
  Cd  Cd15  1  0.98545470  0.45177503  0.75318232  1
  Cd  Cd16  1  0.79193002  0.19170307  0.97464951  1
  Cd  Cd17  1  0.72071851  0.22522152  0.24123716  1
  Cd  Cd18  1  0.69886795  0.24011727  0.53078406  1
  Cd  Cd19  1  0.75664843  0.21100919  0.76300439  1
  Cd  Cd20  1  0.51738893  0.48804687  -0.00002175  1
  Cd  Cd21  1  0.48283133  0.44665870  0.23504011  1
  Cd  Cd22  1  0.44820619  0.52959142  0.49838965  1
  Cd  Cd23  1  0.50563387  0.53286747  0.76225893  1
  Cd  Cd24  1  0.29190031  0.73480986  0.00665252  1
  Cd  Cd25  1  0.25953514  0.78196831  0.28396988  1
  Cd  Cd26  1  0.21888381  0.73264735  0.51447251  1
  Cd  Cd27  1  0.21429830  0.78552317  0.72967790  1
  Cd  Cd28  1  0.76236117  0.67309158  0.00835360  1
  Cd  Cd29  1  0.76917363  0.72732824  0.27614064  1
  Cd  Cd30  1  0.76843053  0.76656805  0.49321003  1
  Cd  Cd31  1  0.78583630  0.77324399  0.74780295  1
  I  I32  1  0.16994723  0.14618068  0.99423571  1
  I  I33  1  0.11871631  0.16068924  0.19245897  1
  I  I34  1  0.07786706  0.10491496  0.51216256  1
  I  I35  1  0.14320426  0.08325086  0.70681296  1
  I  I36  1  0.67497622  0.09513151  0.01670726  1
  I  I37  1  0.55905583  0.16709662  0.23493749  1
  I  I38  1  0.55680483  0.13911092  0.53900072  1
  I  I39  1  0.64882342  0.09075009  0.71081133  1
  I  I40  1  0.33323051  0.38158069  0.97658296  1
  I  I41  1  0.37952342  0.33684365  0.29488056  1
  I  I42  1  0.30107362  0.44645060  0.47820636  1
  I  I43  1  0.40293982  0.40375868  0.75000423  1
  I  I44  1  0.13284162  0.63269863  0.03952802  1
  I  I45  1  0.16746038  0.65843974  0.24033986  1
  I  I46  1  0.12226881  0.59816644  0.54672008  1
  I  I47  1  0.17041549  0.62728560  0.73102993  1
  I  I48  1  0.83617383  0.34601193  0.98605781  1
  I  I49  1  0.90161526  0.35290664  0.27660547  1
  I  I50  1  0.86796180  0.43004231  0.48423699  1
  I  I51  1  0.86598059  0.35321311  0.79754589  1
  I  I52  1  0.66479414  0.54750210  0.04853512  1
  I  I53  1  0.63059530  0.65675154  0.24286264  1
  I  I54  1  0.65090302  0.64529352  0.50786494  1
  I  I55  1  0.66242740  0.55524591  0.73864942  1
  I  I56  1  0.34551491  0.89453053  0.96486735  1
  I  I57  1  0.41633262  0.83434396  0.27529629  1
  I  I58  1  0.37098311  0.92895009  0.48217949  1
  I  I59  1  0.32567457  0.87672621  0.78028106  1
  I  I60  1  0.86912489  0.87008357  0.95832829  1
  I  I61  1  0.87784628  0.84206299  0.24747629  1
  I  I62  1  0.85857320  0.91827184  0.47374177  1
  I  I63  1  0.84006153  0.93169585  0.77018630  1
  I  I64  1  0.93397951  0.11666726  0.02202189  1
  I  I65  1  0.83994953  0.10472822  0.20182017  1
  I  I66  1  0.83064096  0.15032657  0.51091831  1
  I  I67  1  0.89557102  0.14222007  0.70473057  1
  I  I68  1  0.42598856  0.13154224  0.97994851  1
  I  I69  1  0.34526999  0.08024115  0.28750448  1
  I  I70  1  0.33994838  0.17405624  0.46939809  1
  I  I71  1  0.38655629  0.13727539  0.74790940  1
  I  I72  1  0.08836936  0.37337285  0.03297249  1
  I  I73  1  0.15949057  0.41021837  0.21976229  1
  I  I74  1  0.08920295  0.34936433  0.50399774  1
  I  I75  1  0.10741775  0.36907883  0.69233609  1
  I  I76  1  0.89773655  0.57742380  0.96907886  1
  I  I77  1  0.86909449  0.59747606  0.30333347  1
  I  I78  1  0.92020141  0.68600246  0.47906569  1
  I  I79  1  0.88554910  0.66115018  0.78971934  1
  I  I80  1  0.58347866  0.34396147  0.96744146  1
  I  I81  1  0.62263062  0.39894119  0.28626638  1
  I  I82  1  0.63246133  0.36321856  0.47170354  1
  I  I83  1  0.63088929  0.30966264  0.79565283  1
  I  I84  1  0.42244616  0.62381749  0.03662727  1
  I  I85  1  0.40231446  0.58864990  0.22683775  1
  I  I86  1  0.37719257  0.67316983  0.54702841  1
  I  I87  1  0.41172695  0.66013817  0.73150258  1
  I  I88  1  0.11321340  0.89117326  0.98718544  1
  I  I89  1  0.15380841  0.90581518  0.27583167  1
  I  I90  1  0.11325750  0.85282276  0.46075823  1
  I  I91  1  0.07063990  0.85144087  0.77799184  1
  I  I92  1  0.59013343  0.87260746  0.02226319  1
  I  I93  1  0.63066737  0.91812138  0.21592846  1
  I  I94  1  0.63012406  0.88158767  0.52977573  1
  I  I95  1  0.62959792  0.81623005  0.76566492  1
  I  I96  1  0.00682037  0.95722843  0.13716305  1
  I  I97  1  0.98802228  0.04436867  0.34684221  1
  I  I98  1  0.98183297  0.92289960  0.63158384  1
  I  I99  1  0.03547130  0.07000822  0.85912871  1
  I  I100  1  0.41767812  0.01762528  0.13459593  1
  I  I101  1  0.56148960  0.01118529  0.37131333  1
  I  I102  1  0.46900276  0.93483622  0.64570805  1
  I  I103  1  0.50263598  0.98758358  0.85713070  1
  I  I104  1  0.32528920  0.25877507  0.13919990  1
  I  I105  1  0.16494024  0.25014157  0.35132619  1
  I  I106  1  0.29342873  0.26803732  0.62270523  1
  I  I107  1  0.22245609  0.26687653  0.83699473  1
  I  I108  1  0.95464761  0.53671796  0.15409306  1
  I  I109  1  0.07182149  0.52636506  0.36999513  1
  I  I110  1  0.92952237  0.51085525  0.65106218  1
  I  I111  1  0.05324614  0.49692816  0.85414122  1
  I  I112  1  0.73458018  0.30160918  0.13937185  1
  I  I113  1  0.74662465  0.20804267  0.35448168  1
  I  I114  1  0.72828951  0.30182342  0.63907094  1
  I  I115  1  0.80030806  0.12872452  0.86494266  1
  I  I116  1  0.49551485  0.41735973  0.11920726  1
  I  I117  1  0.49358310  0.55357369  0.38997869  1
  I  I118  1  0.50627616  0.47668195  0.59926287  1
  I  I119  1  0.48952829  0.54770889  0.88462505  1
  I  I120  1  0.28283586  0.78751877  0.11619337  1
  I  I121  1  0.27416836  0.71205717  0.39789060  1
  I  I122  1  0.21399130  0.83297748  0.61276931  1
  I  I123  1  0.25489633  0.69616176  0.89771249  1
  I  I124  1  0.80595832  0.73858951  0.10835476  1
  I  I125  1  0.70647777  0.79247160  0.37899774  1
  I  I126  1  0.78861775  0.75292330  0.62605999  1
  I  I127  1  0.69629137  0.71336211  0.90842463  1
  Rb  Rb128  1  0.95108769  0.28213189  0.13091310  1
  Rb  Rb129  1  0.95483338  0.24625202  0.40402933  1
  Rb  Rb130  1  0.94389413  0.29244700  0.60532347  1
  Rb  Rb131  1  0.01481280  0.28300263  0.90281229  1
  Rb  Rb132  1  0.54258917  0.21852700  0.09146336  1
  Rb  Rb133  1  0.52263935  0.22789308  0.38235115  1
  Rb  Rb134  1  0.51441177  0.26626545  0.66421625  1
  Rb  Rb135  1  0.44798119  0.26650592  0.86365067  1
  Rb  Rb136  1  0.27918601  0.49387212  0.10939476  1
  Rb  Rb137  1  0.27729208  0.51511214  0.33402905  1
  Rb  Rb138  1  0.28647232  0.49606919  0.63529413  1
  Rb  Rb139  1  0.26661642  0.49460177  0.84822781  1
  Rb  Rb140  1  0.02758215  0.74955308  0.14111432  1
  Rb  Rb141  1  0.02167643  0.74765998  0.34397974  1
  Rb  Rb142  1  0.00068590  0.71192777  0.65699471  1
  Rb  Rb143  1  0.03225342  0.72340334  0.90046738  1
  Rb  Rb144  1  0.74805073  0.50267293  0.18496290  1
  Rb  Rb145  1  0.71243984  0.52774840  0.38987828  1
  Rb  Rb146  1  0.72986731  0.50444413  0.60037378  1
  Rb  Rb147  1  0.72117487  0.47923680  0.88093947  1
  Rb  Rb148  1  0.50665986  0.76070491  0.14372506  1
  Rb  Rb149  1  0.49278249  0.76805988  0.41560632  1
  Rb  Rb150  1  0.55941055  0.73187086  0.63696342  1
  Rb  Rb151  1  0.46930328  0.76477482  0.86764884  1
  Rb  Rb152  1  0.20923762  0.99467504  0.10442659  1
  Rb  Rb153  1  0.20457926  0.03257506  0.39691166  1
  Rb  Rb154  1  0.29641955  0.04948568  0.60262342  1
  Rb  Rb155  1  0.25449733  0.04223387  0.86191440  1
  Rb  Rb156  1  0.78713607  0.95159081  0.09790841  1
  Rb  Rb157  1  0.77293179  0.99317919  0.33235969  1
  Rb  Rb158  1  0.77793377  0.98600477  0.61795993  1
  Rb  Rb159  1  0.69876544  0.94052004  0.88962726  1
