# generated using pymatgen
data_RbCdBr3
_symmetry_space_group_name_H-M   'P 1'
_cell_length_a   15.79081024
_cell_length_b   15.79081024
_cell_length_c   22.33157700
_cell_angle_alpha   90.00000000
_cell_angle_beta   90.00000000
_cell_angle_gamma   90.00000000
_symmetry_Int_Tables_number   1
_chemical_formula_structural   RbCdBr3
_chemical_formula_sum   'Rb32 Cd32 Br96'
_cell_volume   5568.37175716
_cell_formula_units_Z   32
loop_
 _symmetry_equiv_pos_site_id
 _symmetry_equiv_pos_as_xyz
  1  'x, y, z'
loop_
 _atom_site_type_symbol
 _atom_site_label
 _atom_site_symmetry_multiplicity
 _atom_site_fract_x
 _atom_site_fract_y
 _atom_site_fract_z
 _atom_site_occupancy
  Br  Br0  1  0.14039674  0.10597065  0.98653227  1
  Br  Br1  1  0.13932098  0.10684460  0.26550597  1
  Br  Br2  1  0.11141303  0.14194892  0.48410654  1
  Br  Br3  1  0.11126191  0.14265414  0.76367287  1
  Br  Br4  1  0.63930287  0.10686181  0.98425722  1
  Br  Br5  1  0.63915015  0.10681781  0.26615974  1
  Br  Br6  1  0.61035801  0.14313426  0.48360280  1
  Br  Br7  1  0.61086314  0.14324698  0.76526374  1
  Br  Br8  1  0.34835018  0.39475854  0.01210389  1
  Br  Br9  1  0.34838675  0.39515762  0.23741387  1
  Br  Br10  1  0.40077083  0.35390346  0.51617456  1
  Br  Br11  1  0.40101229  0.35403818  0.73324084  1
  Br  Br12  1  0.13863085  0.60726802  0.98323485  1
  Br  Br13  1  0.13766549  0.60758290  0.26560070  1
  Br  Br14  1  0.11074307  0.64313696  0.48440148  1
  Br  Br15  1  0.11117135  0.64351291  0.76617277  1
  Br  Br16  1  0.84932565  0.39528918  0.01576935  1
  Br  Br17  1  0.84845646  0.39439346  0.23339506  1
  Br  Br18  1  0.90097706  0.35561855  0.51701768  1
  Br  Br19  1  0.90056497  0.35635002  0.73237970  1
  Br  Br20  1  0.64015293  0.60547134  0.98620738  1
  Br  Br21  1  0.63957438  0.60464158  0.26146396  1
  Br  Br22  1  0.61074915  0.64387976  0.48833474  1
  Br  Br23  1  0.61118274  0.64251024  0.76437332  1
  Br  Br24  1  0.34894891  0.89401058  0.01827127  1
  Br  Br25  1  0.34905430  0.89352803  0.23188542  1
  Br  Br26  1  0.40226527  0.85267230  0.51384257  1
  Br  Br27  1  0.40220652  0.85348318  0.73568157  1
  Br  Br28  1  0.84848724  0.89652239  0.01440947  1
  Br  Br29  1  0.84938753  0.89425710  0.23434606  1
  Br  Br30  1  0.90190081  0.85321565  0.51346075  1
  Br  Br31  1  0.90183561  0.85539050  0.73599049  1
  Br  Br32  1  0.88945268  0.14366062  0.98406484  1
  Br  Br33  1  0.88886559  0.14248377  0.26654471  1
  Br  Br34  1  0.86171892  0.10703383  0.48396849  1
  Br  Br35  1  0.86259541  0.10858344  0.76457899  1
  Br  Br36  1  0.38934337  0.14338040  0.98961506  1
  Br  Br37  1  0.38919401  0.14250153  0.26187250  1
  Br  Br38  1  0.36073139  0.10378774  0.48733828  1
  Br  Br39  1  0.36094614  0.10480423  0.76018938  1
  Br  Br40  1  0.09862402  0.35428121  0.01075992  1
  Br  Br41  1  0.09812833  0.35460734  0.23880017  1
  Br  Br42  1  0.15108393  0.39510776  0.51338874  1
  Br  Br43  1  0.15117748  0.39506277  0.73660185  1
  Br  Br44  1  0.89008775  0.64436827  0.98660172  1
  Br  Br45  1  0.88917851  0.64264165  0.26167602  1
  Br  Br46  1  0.86000427  0.60627853  0.48875419  1
  Br  Br47  1  0.86081290  0.60783446  0.76263442  1
  Br  Br48  1  0.59922347  0.35437576  0.01566138  1
  Br  Br49  1  0.59806107  0.35398813  0.23465571  1
  Br  Br50  1  0.65076949  0.39454659  0.51782033  1
  Br  Br51  1  0.65108302  0.39467225  0.73191817  1
  Br  Br52  1  0.38922536  0.64236255  0.98339253  1
  Br  Br53  1  0.38915758  0.64174164  0.26451373  1
  Br  Br54  1  0.36092972  0.60604387  0.48386099  1
  Br  Br55  1  0.36095884  0.60644592  0.76666960  1
  Br  Br56  1  0.09861259  0.85607022  0.01687046  1
  Br  Br57  1  0.09955782  0.85610139  0.23229014  1
  Br  Br58  1  0.15189458  0.89387735  0.51582325  1
  Br  Br59  1  0.15204941  0.89437557  0.73359121  1
  Br  Br60  1  0.59809626  0.85311833  0.01425466  1
  Br  Br61  1  0.59916738  0.85384011  0.23379604  1
  Br  Br62  1  0.65266736  0.89591862  0.51157879  1
  Br  Br63  1  0.65221152  0.89694889  0.73757405  1
  Br  Br64  1  0.99538434  0.03464983  0.12530544  1
  Br  Br65  1  0.00130554  0.96865467  0.37439408  1
  Br  Br66  1  0.00144680  0.02910829  0.62418068  1
  Br  Br67  1  0.00301853  0.97199176  0.87508837  1
  Br  Br68  1  0.50164229  0.03179492  0.12511265  1
  Br  Br69  1  0.49731786  0.96949186  0.37356479  1
  Br  Br70  1  0.50635064  0.02651387  0.62428365  1
  Br  Br71  1  0.49386632  0.97339043  0.87597101  1
  Br  Br72  1  0.24381856  0.22469706  0.12550284  1
  Br  Br73  1  0.25524757  0.27674040  0.37596698  1
  Br  Br74  1  0.24905438  0.21835090  0.62432599  1
  Br  Br75  1  0.25499000  0.27385006  0.87377675  1
  Br  Br76  1  0.00262664  0.52812963  0.12447005  1
  Br  Br77  1  0.99452012  0.47342139  0.37542824  1
  Br  Br78  1  0.00699058  0.53266370  0.62520622  1
  Br  Br79  1  0.99446759  0.47208367  0.87408682  1
  Br  Br80  1  0.74914031  0.21863908  0.12512159  1
  Br  Br81  1  0.75118441  0.28185261  0.37555105  1
  Br  Br82  1  0.75313960  0.21603450  0.62449961  1
  Br  Br83  1  0.75101902  0.28039740  0.87427309  1
  Br  Br84  1  0.49370126  0.52743304  0.12404170  1
  Br  Br85  1  0.50518579  0.47214215  0.37600495  1
  Br  Br86  1  0.49890342  0.53232138  0.62530116  1
  Br  Br87  1  0.50261539  0.46839201  0.87402424  1
  Br  Br88  1  0.24606494  0.71456646  0.12428408  1
  Br  Br89  1  0.24998877  0.77918381  0.37384315  1
  Br  Br90  1  0.25332383  0.71816176  0.62502745  1
  Br  Br91  1  0.24902683  0.78182408  0.87567916  1
  Br  Br92  1  0.74848919  0.71871365  0.12418300  1
  Br  Br93  1  0.74993743  0.77446171  0.37356551  1
  Br  Br94  1  0.75224041  0.72448294  0.62570147  1
  Br  Br95  1  0.75102897  0.77879596  0.87530601  1
  Cd  Cd96  1  0.99403150  0.00067460  0.00073294  1
  Cd  Cd97  1  0.99385829  0.00007940  0.24944870  1
  Cd  Cd98  1  0.00633063  0.99881343  0.49933001  1
  Cd  Cd99  1  0.00671766  -0.00056208  0.74971293  1
  Cd  Cd100  1  0.49415666  0.99866562  0.00093654  1
  Cd  Cd101  1  0.49395279  0.99854451  0.24911437  1
  Cd  Cd102  1  0.50628156  -0.00057590  0.49890455  1
  Cd  Cd103  1  0.50677685  0.00003417  0.75001498  1
  Cd  Cd104  1  0.24380621  0.24911757  0.99957620  1
  Cd  Cd105  1  0.24376900  0.24871435  0.25083535  1
  Cd  Cd106  1  0.25613736  0.24861609  0.50046812  1
  Cd  Cd107  1  0.25641628  0.24923628  0.74886112  1
  Cd  Cd108  1  0.99402665  0.50071704  0.99944584  1
  Cd  Cd109  1  0.99323497  0.49934444  0.24959900  1
  Cd  Cd110  1  0.00627390  0.49979454  0.50060575  1
  Cd  Cd111  1  0.00630941  0.50110165  0.74946713  1
  Cd  Cd112  1  0.74425698  0.24982391  0.00003523  1
  Cd  Cd113  1  0.74398039  0.24882613  0.25038784  1
  Cd  Cd114  1  0.75567992  0.24958589  0.50005195  1
  Cd  Cd115  1  0.75591462  0.25057823  0.74924758  1
  Cd  Cd116  1  0.49444962  0.50041321  0.99891616  1
  Cd  Cd117  1  0.49414174  0.49952042  0.24997471  1
  Cd  Cd118  1  0.50592850  0.49870463  0.50098368  1
  Cd  Cd119  1  0.50585169  0.49898472  0.74941747  1
  Cd  Cd120  1  0.24424678  0.74999287  0.00002274  1
  Cd  Cd121  1  0.24374638  0.74912264  0.24884210  1
  Cd  Cd122  1  0.25618805  0.74868401  0.49956664  1
  Cd  Cd123  1  0.25647582  0.74883546  0.75036577  1
  Cd  Cd124  1  0.74426956  0.74998305  -0.00000111  1
  Cd  Cd125  1  0.74368991  0.74913650  0.24862089  1
  Cd  Cd126  1  0.75578776  0.74955184  0.49980362  1
  Cd  Cd127  1  0.75565893  0.75001191  0.75034694  1
  Rb  Rb128  1  0.97179877  0.25866831  0.12471798  1
  Rb  Rb129  1  0.99667881  0.25175296  0.37700540  1
  Rb  Rb130  1  0.02729408  0.25196439  0.62477138  1
  Rb  Rb131  1  0.99704978  0.25077201  0.87227200  1
  Rb  Rb132  1  0.46892081  0.25559660  0.12498525  1
  Rb  Rb133  1  0.49919941  0.25041169  0.37314618  1
  Rb  Rb134  1  0.52981635  0.25148683  0.62468254  1
  Rb  Rb135  1  0.49973256  0.24715946  0.87698192  1
  Rb  Rb136  1  0.22342763  0.49149882  0.12461140  1
  Rb  Rb137  1  0.24773966  0.49840531  0.37510942  1
  Rb  Rb138  1  0.27690482  0.49469694  0.62505434  1
  Rb  Rb139  1  0.24898371  0.49598692  0.87485425  1
  Rb  Rb140  1  0.97193221  0.75183699  0.12470109  1
  Rb  Rb141  1  0.00110124  0.74781956  0.37260459  1
  Rb  Rb142  1  0.03053032  0.75676985  0.62519170  1
  Rb  Rb143  1  0.00173956  0.75120212  0.87661778  1
  Rb  Rb144  1  0.71825821  0.49404474  0.12439347  1
  Rb  Rb145  1  0.74918428  0.50309847  0.37574676  1
  Rb  Rb146  1  0.78107866  0.49879079  0.62500082  1
  Rb  Rb147  1  0.74959428  0.50128558  0.87348403  1
  Rb  Rb148  1  0.46995622  0.75210217  0.12455946  1
  Rb  Rb149  1  0.49962571  0.74778341  0.37586861  1
  Rb  Rb150  1  0.52918757  0.75536468  0.62517825  1
  Rb  Rb151  1  0.49960438  0.75163686  0.87389093  1
  Rb  Rb152  1  0.21954426  -0.00116129  0.12529727  1
  Rb  Rb153  1  0.25070467  -0.00043220  0.37521579  1
  Rb  Rb154  1  0.28190886  0.99344294  0.62437632  1
  Rb  Rb155  1  0.25023691  0.00271802  0.87371317  1
  Rb  Rb156  1  0.72272196  0.99587572  0.12505985  1
  Rb  Rb157  1  0.75239962  0.99688553  0.37402549  1
  Rb  Rb158  1  0.77888508  0.99257924  0.62445392  1
  Rb  Rb159  1  0.75375262  0.00070116  0.87527691  1
