# generated using pymatgen
data_RbCdF3
_symmetry_space_group_name_H-M   'P 1'
_cell_length_a   12.73456038
_cell_length_b   12.73456038
_cell_length_c   18.00938700
_cell_angle_alpha   90.00000000
_cell_angle_beta   90.00000000
_cell_angle_gamma   90.00000000
_symmetry_Int_Tables_number   1
_chemical_formula_structural   RbCdF3
_chemical_formula_sum   'Rb32 Cd32 F96'
_cell_volume   2920.56478588
_cell_formula_units_Z   32
loop_
 _symmetry_equiv_pos_site_id
 _symmetry_equiv_pos_as_xyz
  1  'x, y, z'
loop_
 _atom_site_type_symbol
 _atom_site_label
 _atom_site_symmetry_multiplicity
 _atom_site_fract_x
 _atom_site_fract_y
 _atom_site_fract_z
 _atom_site_occupancy
  Cd  Cd0  1  -0.00060450  0.25037285  0.12472208  1
  Cd  Cd1  1  -0.00039448  0.24997649  0.37445856  1
  Cd  Cd2  1  -0.00003348  0.24970189  0.62465063  1
  Cd  Cd3  1  -0.00024952  0.25012053  0.87442000  1
  Cd  Cd4  1  0.49934714  0.25028079  0.12478846  1
  Cd  Cd5  1  0.49945655  0.25012794  0.37459547  1
  Cd  Cd6  1  0.49986168  0.24984968  0.62473095  1
  Cd  Cd7  1  0.49969958  0.25016996  0.87451085  1
  Cd  Cd8  1  0.24925434  0.50045116  0.12467854  1
  Cd  Cd9  1  0.24961193  0.49997776  0.37441336  1
  Cd  Cd10  1  0.24993107  0.49970920  0.62457587  1
  Cd  Cd11  1  0.24956176  0.50026814  0.87453686  1
  Cd  Cd12  1  -0.00065352  0.75046467  0.12472073  1
  Cd  Cd13  1  -0.00038335  0.74981942  0.37454993  1
  Cd  Cd14  1  -0.00004542  0.74969252  0.62476438  1
  Cd  Cd15  1  -0.00049651  0.75022038  0.87460876  1
  Cd  Cd16  1  0.74937015  0.50036006  0.12483215  1
  Cd  Cd17  1  0.74955733  0.49993491  0.37453542  1
  Cd  Cd18  1  0.74986852  0.49968337  0.62479118  1
  Cd  Cd19  1  0.74959555  0.50009662  0.87466772  1
  Cd  Cd20  1  0.49943322  0.75052882  0.12471739  1
  Cd  Cd21  1  0.49965392  0.74992317  0.37450991  1
  Cd  Cd22  1  0.49988259  0.74967115  0.62462894  1
  Cd  Cd23  1  0.49971059  0.75014191  0.87441498  1
  Cd  Cd24  1  0.24928661  0.00025527  0.12478612  1
  Cd  Cd25  1  0.24942017  -0.00002905  0.37462269  1
  Cd  Cd26  1  0.24990049  -0.00018169  0.62476449  1
  Cd  Cd27  1  0.24972226  0.00012543  0.87453002  1
  Cd  Cd28  1  0.74949596  0.00034178  0.12470331  1
  Cd  Cd29  1  0.74950903  0.00002782  0.37457653  1
  Cd  Cd30  1  0.74979387  -0.00019389  0.62463229  1
  Cd  Cd31  1  0.74972157  0.00013484  0.87439747  1
  F  F32  1  0.00685893  0.23057540  -0.00043365  1
  F  F33  1  0.99293031  0.27075294  0.24962754  1
  F  F34  1  0.00666035  0.22914257  0.49949655  1
  F  F35  1  0.99294701  0.26993258  0.74959538  1
  F  F36  1  0.47928768  0.25804249  -0.00034893  1
  F  F37  1  0.52016889  0.24195978  0.24969786  1
  F  F38  1  0.47899733  0.25805061  0.49968580  1
  F  F39  1  0.52049665  0.24202992  0.74962535  1
  F  F40  1  0.27024124  0.49267240  -0.00039430  1
  F  F41  1  0.22832277  0.50773649  0.24958848  1
  F  F42  1  0.27135235  0.49224437  0.49943823  1
  F  F43  1  0.22915341  0.50765456  0.74955056  1
  F  F44  1  0.97869913  0.75839304  -0.00036059  1
  F  F45  1  0.02040589  0.74233901  0.24965585  1
  F  F46  1  -0.02063363  0.75768120  0.49970475  1
  F  F47  1  0.02019355  0.74168781  0.74969453  1
  F  F48  1  0.74233315  0.51976828  -0.00025592  1
  F  F49  1  0.75684436  0.47993212  0.24967189  1
  F  F50  1  0.74266669  0.51975988  0.49965290  1
  F  F51  1  0.75711024  0.48028645  0.74975683  1
  F  F52  1  0.50652675  0.73046538  -0.00042107  1
  F  F53  1  0.49305349  0.77079461  0.24963053  1
  F  F54  1  0.50684548  0.72901555  0.49952702  1
  F  F55  1  0.49284225  0.77000693  0.74951188  1
  F  F56  1  0.24253448  0.01988574  -0.00036105  1
  F  F57  1  0.25656079  -0.02007150  0.24970319  1
  F  F58  1  0.24229004  0.01992848  0.49974049  1
  F  F59  1  0.25733433  -0.01983613  0.74967672  1
  F  F60  1  0.77028314  0.99220398  0.99953949  1
  F  F61  1  0.72833998  0.00746880  0.24966280  1
  F  F62  1  0.77089983  -0.00746375  0.49961818  1
  F  F63  1  0.72921470  0.00796417  0.74949312  1
  F  F64  1  0.11399455  0.11491954  0.13791353  1
  F  F65  1  0.13500694  0.13540898  0.36107071  1
  F  F66  1  0.11457293  0.11442909  0.63822870  1
  F  F67  1  0.13544665  0.13574856  0.86161138  1
  F  F68  1  0.61446507  0.11524884  0.11070693  1
  F  F69  1  0.63479156  0.13534373  0.38860465  1
  F  F70  1  0.61474884  0.11478193  0.61076463  1
  F  F71  1  0.63520120  0.13559839  0.88833047  1
  F  F72  1  0.38446524  0.38545715  0.13840984  1
  F  F73  1  0.36412077  0.36458206  0.36025680  1
  F  F74  1  0.38523367  0.38521222  0.63904623  1
  F  F75  1  0.36422458  0.36470600  0.86104796  1
  F  F76  1  0.11423156  0.61526780  0.11054849  1
  F  F77  1  0.13506421  0.63530736  0.38864690  1
  F  F78  1  0.11500606  0.61464684  0.61074462  1
  F  F79  1  0.13492923  0.63557095  0.88845644  1
  F  F80  1  0.88467747  0.38550087  0.11145971  1
  F  F81  1  0.86412952  0.36443023  0.38779264  1
  F  F82  1  0.88519714  0.38491132  0.61167203  1
  F  F83  1  0.86404686  0.36450024  0.88737604  1
  F  F84  1  0.61418663  0.61517746  0.13781810  1
  F  F85  1  0.63527049  0.63560330  0.36101745  1
  F  F86  1  0.61460470  0.61446645  0.63823744  1
  F  F87  1  0.63535182  0.63578560  0.86166292  1
  F  F88  1  0.38470706  0.88562632  0.11162838  1
  F  F89  1  0.36429737  0.86466905  0.38792383  1
  F  F90  1  0.38524153  0.88509842  0.61140171  1
  F  F91  1  0.36416415  0.86457640  0.88742463  1
  F  F92  1  0.88461346  0.88557858  0.13885874  1
  F  F93  1  0.86424945  0.86454647  0.36079255  1
  F  F94  1  0.88518305  0.88506120  0.63852098  1
  F  F95  1  0.86422110  0.86466642  0.86041105  1
  F  F96  1  0.86329102  0.13647562  0.12945067  1
  F  F97  1  0.88425100  0.11522934  0.36627190  1
  F  F98  1  0.86371067  0.13599592  0.62952709  1
  F  F99  1  0.88496257  0.11490095  0.86717739  1
  F  F100  1  0.36466147  0.13493890  0.13231090  1
  F  F101  1  0.38585483  0.11371452  0.37016720  1
  F  F102  1  0.36516742  0.13457091  0.63213371  1
  F  F103  1  0.38629891  0.11362315  0.86997503  1
  F  F104  1  0.13561281  0.36412584  0.11952550  1
  F  F105  1  0.11489159  0.38473919  0.38263629  1
  F  F106  1  0.13617082  0.36348363  0.61927932  1
  F  F107  1  0.11455342  0.38529369  0.88177120  1
  F  F108  1  0.86484664  0.63500393  0.13252949  1
  F  F109  1  0.88604244  0.61350056  0.36994881  1
  F  F110  1  0.86524441  0.63431916  0.63207462  1
  F  F111  1  0.88611791  0.61361775  0.87015617  1
  F  F112  1  0.63390084  0.36575667  0.11760685  1
  F  F113  1  0.61317296  0.38642549  0.37958222  1
  F  F114  1  0.63470417  0.36500711  0.61717785  1
  F  F115  1  0.61310560  0.38662039  0.87965179  1
  F  F116  1  0.36338352  0.63646277  0.12954022  1
  F  F117  1  0.38428068  0.61537017  0.36631905  1
  F  F118  1  0.36364790  0.63602602  0.62955626  1
  F  F119  1  0.38457255  0.61522458  0.86701956  1
  F  F120  1  0.13427013  0.86538959  0.11721392  1
  F  F121  1  0.11324184  0.88617273  0.37975891  1
  F  F122  1  0.13476570  0.86488312  0.61753479  1
  F  F123  1  0.11325991  0.88655050  0.87948211  1
  F  F124  1  0.63571968  0.86423900  0.11940594  1
  F  F125  1  0.61482957  0.88483994  0.38263344  1
  F  F126  1  0.63622756  0.86344965  0.61940035  1
  F  F127  1  0.61466538  0.88526624  0.88177785  1
  Rb  Rb128  1  0.00175047  -0.00160700  0.00270832  1
  Rb  Rb129  1  0.00257552  -0.00282056  0.25308129  1
  Rb  Rb130  1  0.00200664  -0.00253562  0.50307182  1
  Rb  Rb131  1  0.00234251  -0.00256766  0.75286799  1
  Rb  Rb132  1  0.49719890  0.00256620  0.99645287  1
  Rb  Rb133  1  0.49698108  0.00244943  0.24655840  1
  Rb  Rb134  1  0.49684828  0.00284796  0.49647937  1
  Rb  Rb135  1  0.49770081  0.00206599  0.74668935  1
  Rb  Rb136  1  0.24756933  0.25228055  -0.00368022  1
  Rb  Rb137  1  0.24645653  0.25290100  0.24612763  1
  Rb  Rb138  1  0.24741903  0.25209278  0.49604120  1
  Rb  Rb139  1  0.24726722  0.25253955  0.74627155  1
  Rb  Rb140  1  -0.00297268  0.50235482  -0.00352766  1
  Rb  Rb141  1  -0.00287074  0.50245434  0.24635367  1
  Rb  Rb142  1  -0.00318481  0.50269513  0.49648962  1
  Rb  Rb143  1  -0.00242740  0.50200470  0.74671009  1
  Rb  Rb144  1  0.75176008  0.24797691  0.00305115  1
  Rb  Rb145  1  0.75178939  0.24787257  0.25298776  1
  Rb  Rb146  1  0.75267421  0.24707644  0.50301586  1
  Rb  Rb147  1  0.75214257  0.24797454  0.75275249  1
  Rb  Rb148  1  0.50164866  0.49813023  0.00292138  1
  Rb  Rb149  1  0.50234473  0.49737884  0.25281136  1
  Rb  Rb150  1  0.50221796  0.49766027  0.50304260  1
  Rb  Rb151  1  0.50226265  0.49761783  0.75296261  1
  Rb  Rb152  1  0.25227247  0.74776166  0.00291908  1
  Rb  Rb153  1  0.25199217  0.74785323  0.25307906  1
  Rb  Rb154  1  0.25254362  0.74716921  0.50309789  1
  Rb  Rb155  1  0.25194341  0.74797156  0.75287385  1
  Rb  Rb156  1  0.74722859  0.75224458  -0.00359790  1
  Rb  Rb157  1  0.74659569  0.75317377  0.24623389  1
  Rb  Rb158  1  0.74760536  0.75214943  0.49616688  1
  Rb  Rb159  1  0.74728031  0.75219148  0.74614043  1
