# generated using pymatgen
data_RbCdCl3
_symmetry_space_group_name_H-M   'P 1'
_cell_length_a   14.95456879
_cell_length_b   14.95456879
_cell_length_c   21.14895400
_cell_angle_alpha   90.00000000
_cell_angle_beta   90.00000000
_cell_angle_gamma   90.00000000
_symmetry_Int_Tables_number   1
_chemical_formula_structural   RbCdCl3
_chemical_formula_sum   'Rb32 Cd32 Cl96'
_cell_volume   4729.73362321
_cell_formula_units_Z   32
loop_
 _symmetry_equiv_pos_site_id
 _symmetry_equiv_pos_as_xyz
  1  'x, y, z'
loop_
 _atom_site_type_symbol
 _atom_site_label
 _atom_site_symmetry_multiplicity
 _atom_site_fract_x
 _atom_site_fract_y
 _atom_site_fract_z
 _atom_site_occupancy
  Cd  Cd0  1  0.00198253  0.99846746  0.00046996  1
  Cd  Cd1  1  0.99956550  0.00030747  0.25032523  1
  Cd  Cd2  1  0.99952084  0.00051636  0.49979146  1
  Cd  Cd3  1  0.00186952  0.99872549  0.74948005  1
  Cd  Cd4  1  0.49991750  0.00016570  0.99999464  1
  Cd  Cd5  1  0.50111391  0.99843587  0.24986752  1
  Cd  Cd6  1  0.50110807  0.99815206  0.50048382  1
  Cd  Cd7  1  0.49961666  0.00026996  0.75051492  1
  Cd  Cd8  1  0.25092796  0.24906442  0.99986386  1
  Cd  Cd9  1  0.24899322  0.25063364  0.24981157  1
  Cd  Cd10  1  0.24916131  0.25055005  0.50049194  1
  Cd  Cd11  1  0.25091968  0.24896326  0.75012114  1
  Cd  Cd12  1  0.99989426  0.50010623  0.00001655  1
  Cd  Cd13  1  0.00125228  0.49863167  0.25003598  1
  Cd  Cd14  1  0.00128130  0.49819952  0.50059605  1
  Cd  Cd15  1  0.99944913  0.50022394  0.75047013  1
  Cd  Cd16  1  0.74941698  0.25052363  0.00038771  1
  Cd  Cd17  1  0.75082197  0.24896346  0.25018696  1
  Cd  Cd18  1  0.75071803  0.24873031  0.49995652  1
  Cd  Cd19  1  0.74945284  0.25052296  0.74957757  1
  Cd  Cd20  1  0.50194025  0.49844749  0.00051231  1
  Cd  Cd21  1  0.49963291  0.50016759  0.25020430  1
  Cd  Cd22  1  0.49942733  0.50011658  0.49997556  1
  Cd  Cd23  1  0.50173327  0.49831796  0.74940134  1
  Cd  Cd24  1  0.24953663  0.75055288  0.00042190  1
  Cd  Cd25  1  0.25096348  0.74911185  0.25019023  1
  Cd  Cd26  1  0.25086878  0.74889063  0.49994436  1
  Cd  Cd27  1  0.24936395  0.75058294  0.74970565  1
  Cd  Cd28  1  0.75105663  0.74896723  0.00006999  1
  Cd  Cd29  1  0.74929018  0.75075429  0.24983188  1
  Cd  Cd30  1  0.74935666  0.75054088  0.50048354  1
  Cd  Cd31  1  0.75091296  0.74897934  0.75038063  1
  Cl  Cl32  1  0.13990697  0.10913337  0.01515713  1
  Cl  Cl33  1  0.10998216  0.14074003  0.23546451  1
  Cl  Cl34  1  0.11134940  0.13941095  0.51537155  1
  Cl  Cl35  1  0.14047418  0.10877317  0.73425050  1
  Cl  Cl36  1  0.63958714  0.11032660  0.98592571  1
  Cl  Cl37  1  0.61041890  0.13904903  0.26433833  1
  Cl  Cl38  1  0.61123348  0.13811009  0.48539224  1
  Cl  Cl39  1  0.64019866  0.10956698  0.76428235  1
  Cl  Cl40  1  0.36131591  0.38859417  0.98609973  1
  Cl  Cl41  1  0.38981543  0.35985023  0.26377880  1
  Cl  Cl42  1  0.38898851  0.36071381  0.48567298  1
  Cl  Cl43  1  0.36109358  0.38870929  0.76425704  1
  Cl  Cl44  1  0.13983820  0.60994008  0.98595923  1
  Cl  Cl45  1  0.11080094  0.63940239  0.26435035  1
  Cl  Cl46  1  0.11132467  0.63854626  0.48606236  1
  Cl  Cl47  1  0.13962068  0.60997901  0.76459342  1
  Cl  Cl48  1  0.86072369  0.38810925  0.01577558  1
  Cl  Cl49  1  0.89088797  0.35970597  0.23525193  1
  Cl  Cl50  1  0.88931778  0.36101711  0.51573297  1
  Cl  Cl51  1  0.85971747  0.38893755  0.73455854  1
  Cl  Cl52  1  0.63998228  0.60911481  0.01544263  1
  Cl  Cl53  1  0.61098975  0.63987935  0.23546962  1
  Cl  Cl54  1  0.61154007  0.63895229  0.51509651  1
  Cl  Cl55  1  0.63985600  0.60880983  0.73464839  1
  Cl  Cl56  1  0.36109343  0.88810185  0.01562966  1
  Cl  Cl57  1  0.39110541  0.85988829  0.23455061  1
  Cl  Cl58  1  0.38953434  0.86084655  0.51609812  1
  Cl  Cl59  1  0.36005198  0.88888407  0.73497802  1
  Cl  Cl60  1  0.86188059  0.88831679  0.98609392  1
  Cl  Cl61  1  0.89072740  0.85936092  0.26372074  1
  Cl  Cl62  1  0.88911964  0.86082807  0.48598497  1
  Cl  Cl63  1  0.86103745  0.88892592  0.76418710  1
  Cl  Cl64  1  0.88868584  0.13748764  0.98775198  1
  Cl  Cl65  1  0.86129194  0.11059034  0.26846711  1
  Cl  Cl66  1  0.86281782  0.11221887  0.48095819  1
  Cl  Cl67  1  0.88953765  0.13846305  0.76249529  1
  Cl  Cl68  1  0.38828192  0.13727418  0.98145286  1
  Cl  Cl69  1  0.36106927  0.11056590  0.26263330  1
  Cl  Cl70  1  0.36206473  0.11130294  0.48746641  1
  Cl  Cl71  1  0.38869837  0.13761842  0.76893273  1
  Cl  Cl72  1  0.11150405  0.36035138  0.01561944  1
  Cl  Cl73  1  0.14383481  0.39336141  0.23680165  1
  Cl  Cl74  1  0.14286764  0.39222255  0.51442516  1
  Cl  Cl75  1  0.11105542  0.36032946  0.73482992  1
  Cl  Cl76  1  0.88838415  0.63724925  0.98164666  1
  Cl  Cl77  1  0.86144898  0.61045961  0.26295913  1
  Cl  Cl78  1  0.86217111  0.61132484  0.48735744  1
  Cl  Cl79  1  0.88820898  0.63752564  0.76904238  1
  Cl  Cl80  1  0.60734264  0.35628782  0.01340327  1
  Cl  Cl81  1  0.63934304  0.38849477  0.23437268  1
  Cl  Cl82  1  0.63842099  0.38775398  0.51560882  1
  Cl  Cl83  1  0.60683909  0.35563289  0.73649852  1
  Cl  Cl84  1  0.38898344  0.63767291  0.98779562  1
  Cl  Cl85  1  0.36222057  0.61134533  0.26848043  1
  Cl  Cl86  1  0.36291199  0.61215306  0.48129952  1
  Cl  Cl87  1  0.38893988  0.63800336  0.76239781  1
  Cl  Cl88  1  0.10771410  0.85635551  0.01349177  1
  Cl  Cl89  1  0.14026077  0.88936341  0.23471770  1
  Cl  Cl90  1  0.13868143  0.88818079  0.51530961  1
  Cl  Cl91  1  0.10694202  0.85592518  0.73669485  1
  Cl  Cl92  1  0.61213268  0.86071703  0.01590806  1
  Cl  Cl93  1  0.64407470  0.89319582  0.23695691  1
  Cl  Cl94  1  0.64265822  0.89185165  0.51431524  1
  Cl  Cl95  1  0.61112199  0.85994738  0.73490908  1
  Cl  Cl96  1  0.97049881  0.00000045  0.12565413  1
  Cl  Cl97  1  0.02994032  0.99984077  0.37501601  1
  Cl  Cl98  1  0.96953746  0.99988471  0.62444440  1
  Cl  Cl99  1  0.03035771  0.99930293  0.87494693  1
  Cl  Cl100  1  0.50015534  0.03019516  0.12458240  1
  Cl  Cl101  1  0.50034807  0.96879344  0.37521540  1
  Cl  Cl102  1  0.50007471  0.02987526  0.62578145  1
  Cl  Cl103  1  0.50022512  0.96913139  0.87530532  1
  Cl  Cl104  1  0.28065498  0.24864712  0.12460006  1
  Cl  Cl105  1  0.22032796  0.25044008  0.37520938  1
  Cl  Cl106  1  0.28134119  0.24912335  0.62560907  1
  Cl  Cl107  1  0.22060295  0.24868195  0.87500100  1
  Cl  Cl108  1  0.99997803  0.52989641  0.12472900  1
  Cl  Cl109  1  0.00124878  0.46927991  0.37530957  1
  Cl  Cl110  1  0.99976616  0.53027265  0.62580234  1
  Cl  Cl111  1  0.99931704  0.46923037  0.87521435  1
  Cl  Cl112  1  0.75060928  0.21864928  0.12561240  1
  Cl  Cl113  1  0.75040383  0.27927552  0.37502941  1
  Cl  Cl114  1  0.75050610  0.21795604  0.62441459  1
  Cl  Cl115  1  0.75003054  0.27917591  0.87509474  1
  Cl  Cl116  1  0.47021938  0.49994475  0.12563815  1
  Cl  Cl117  1  0.52979636  0.49938140  0.37502071  1
  Cl  Cl118  1  0.46926118  0.49989146  0.62445758  1
  Cl  Cl119  1  0.53002197  0.49928508  0.87500060  1
  Cl  Cl120  1  0.25052843  0.71869627  0.12558035  1
  Cl  Cl121  1  0.25133009  0.77926825  0.37506619  1
  Cl  Cl122  1  0.25053722  0.71870065  0.62462483  1
  Cl  Cl123  1  0.25008625  0.77909408  0.87515989  1
  Cl  Cl124  1  0.78107642  0.74870467  0.12475604  1
  Cl  Cl125  1  0.72062763  0.75058343  0.37520318  1
  Cl  Cl126  1  0.78105972  0.74860099  0.62570737  1
  Cl  Cl127  1  0.72069326  0.74878512  0.87528533  1
  Rb  Rb128  1  0.98925967  0.23860891  0.11895051  1
  Rb  Rb129  1  0.98897088  0.23830546  0.37411566  1
  Rb  Rb130  1  0.98954832  0.23889094  0.63087736  1
  Rb  Rb131  1  0.99904404  0.24788652  0.87554756  1
  Rb  Rb132  1  0.50686924  0.25604065  0.13594902  1
  Rb  Rb133  1  0.50034494  0.25005101  0.37517568  1
  Rb  Rb134  1  0.50691525  0.25556127  0.61373723  1
  Rb  Rb135  1  0.51150067  0.26087355  0.87508080  1
  Rb  Rb136  1  0.24412733  0.49264392  0.11403037  1
  Rb  Rb137  1  0.23971266  0.48804130  0.37530055  1
  Rb  Rb138  1  0.24324704  0.49287665  0.63677364  1
  Rb  Rb139  1  0.25202259  0.50061965  0.87517105  1
  Rb  Rb140  1  0.00753687  0.75612873  0.13609735  1
  Rb  Rb141  1  0.00056371  0.74982111  0.37553051  1
  Rb  Rb142  1  0.00693767  0.75616401  0.61383276  1
  Rb  Rb143  1  0.01136791  0.76098671  0.87519903  1
  Rb  Rb144  1  0.76184693  0.51033651  0.13129652  1
  Rb  Rb145  1  0.75133667  0.50079068  0.37533452  1
  Rb  Rb146  1  0.76128033  0.51019745  0.61851741  1
  Rb  Rb147  1  0.76161208  0.51057152  0.87535559  1
  Rb  Rb148  1  0.48994757  0.73821274  0.11907078  1
  Rb  Rb149  1  0.48947712  0.73787196  0.37461290  1
  Rb  Rb150  1  0.48987204  0.73860090  0.63088886  1
  Rb  Rb151  1  0.49919241  0.74757063  0.87516907  1
  Rb  Rb152  1  0.26187998  0.01036333  0.13089339  1
  Rb  Rb153  1  0.25154587  0.00073372  0.37519301  1
  Rb  Rb154  1  0.26165732  0.00982086  0.61851919  1
  Rb  Rb155  1  0.26175901  0.01056751  0.87502300  1
  Rb  Rb156  1  0.74449194  0.99269077  0.11424251  1
  Rb  Rb157  1  0.73841599  0.98852389  0.37556218  1
  Rb  Rb158  1  0.74359381  0.99200975  0.63664567  1
  Rb  Rb159  1  0.75150598  0.00002101  0.87547677  1
