# generated using pymatgen
data_RbGaBr3
_symmetry_space_group_name_H-M   'P 1'
_cell_length_a   15.43629377
_cell_length_b   15.43629377
_cell_length_c   21.83021700
_cell_angle_alpha   90.00000000
_cell_angle_beta   90.00000000
_cell_angle_gamma   90.00000000
_symmetry_Int_Tables_number   1
_chemical_formula_structural   RbGaBr3
_chemical_formula_sum   'Rb32 Ga32 Br96'
_cell_volume   5201.68588515
_cell_formula_units_Z   32
loop_
 _symmetry_equiv_pos_site_id
 _symmetry_equiv_pos_as_xyz
  1  'x, y, z'
loop_
 _atom_site_type_symbol
 _atom_site_label
 _atom_site_symmetry_multiplicity
 _atom_site_fract_x
 _atom_site_fract_y
 _atom_site_fract_z
 _atom_site_occupancy
  Br  Br0  1  0.14372325  0.09107539  0.00144320  1
  Br  Br1  1  0.12849525  0.13325935  0.24944375  1
  Br  Br2  1  0.14766277  0.09109661  0.50280764  1
  Br  Br3  1  0.12945815  0.13031332  0.74910545  1
  Br  Br4  1  0.66314180  0.08839423  0.00413479  1
  Br  Br5  1  0.63194284  0.13771920  0.24839350  1
  Br  Br6  1  0.63862875  0.09089957  0.50609709  1
  Br  Br7  1  0.62527893  0.13593246  0.75465786  1
  Br  Br8  1  0.36763637  0.39715468  0.00464194  1
  Br  Br9  1  0.38814496  0.37517556  0.24813827  1
  Br  Br10  1  0.33542254  0.41509281  0.49822188  1
  Br  Br11  1  0.38888515  0.37843430  0.75057937  1
  Br  Br12  1  0.14128795  0.58439981  0.99995166  1
  Br  Br13  1  0.12694526  0.61899128  0.23848596  1
  Br  Br14  1  0.13994680  0.64039192  0.50215346  1
  Br  Br15  1  0.12765594  0.61761789  0.76075872  1
  Br  Br16  1  0.85518038  0.40700564  0.99924784  1
  Br  Br17  1  0.86718750  0.37338868  0.24885473  1
  Br  Br18  1  0.84372484  0.40847255  0.50056919  1
  Br  Br19  1  0.86360767  0.36960279  0.75212512  1
  Br  Br20  1  0.63714017  0.59485455  0.99983330  1
  Br  Br21  1  0.62645270  0.61457355  0.25163934  1
  Br  Br22  1  0.63485867  0.62914015  0.49501562  1
  Br  Br23  1  0.61902410  0.61206301  0.75229032  1
  Br  Br24  1  0.32540030  0.91920782  0.99746602  1
  Br  Br25  1  0.38639222  0.87318930  0.24557386  1
  Br  Br26  1  0.27016331  0.89075262  0.49530318  1
  Br  Br27  1  0.38390430  0.87714984  0.76219840  1
  Br  Br28  1  0.86427647  0.90875392  0.00069370  1
  Br  Br29  1  0.87710934  0.87091898  0.25637110  1
  Br  Br30  1  0.77212470  0.89286304  0.49870434  1
  Br  Br31  1  0.87293194  0.87094794  0.74533558  1
  Br  Br32  1  0.90453346  0.15536763  0.01338852  1
  Br  Br33  1  0.87108912  0.13429783  0.23575666  1
  Br  Br34  1  0.89057297  0.11083627  0.51328750  1
  Br  Br35  1  0.86741669  0.12934345  0.74842413  1
  Br  Br36  1  0.41468947  0.13506096  0.99989633  1
  Br  Br37  1  0.37857044  0.12937980  0.24663903  1
  Br  Br38  1  0.38910829  0.10298839  0.50709089  1
  Br  Br39  1  0.38336167  0.12941756  0.75320938  1
  Br  Br40  1  0.09840389  0.34837720  0.99753036  1
  Br  Br41  1  0.13218303  0.37530312  0.24792979  1
  Br  Br42  1  0.09024095  0.33649891  0.50099655  1
  Br  Br43  1  0.12961562  0.37122429  0.75091499  1
  Br  Br44  1  0.90487167  0.63984491  0.00120731  1
  Br  Br45  1  0.87224981  0.62052788  0.24892612  1
  Br  Br46  1  0.89113712  0.65886635  0.50178759  1
  Br  Br47  1  0.86891304  0.61712762  0.74991803  1
  Br  Br48  1  0.59263438  0.36861010  0.99063302  1
  Br  Br49  1  0.62748095  0.37819966  0.27232226  1
  Br  Br50  1  0.58890793  0.33917330  0.48954562  1
  Br  Br51  1  0.62028431  0.37997032  0.76250803  1
  Br  Br52  1  0.41093530  0.61922246  0.03054492  1
  Br  Br53  1  0.39001120  0.60932872  0.22978648  1
  Br  Br54  1  0.39480251  0.65931322  0.51486515  1
  Br  Br55  1  0.38742753  0.61033406  0.74404520  1
  Br  Br56  1  0.08892927  0.83438566  0.98498606  1
  Br  Br57  1  0.13411387  0.87453224  0.25684428  1
  Br  Br58  1  0.02087489  0.85878453  0.49463430  1
  Br  Br59  1  0.12935378  0.87198919  0.76849761  1
  Br  Br60  1  0.58076846  0.85533869  0.00014794  1
  Br  Br61  1  0.63459719  0.87286772  0.25379927  1
  Br  Br62  1  0.51894575  0.86076406  0.50007493  1
  Br  Br63  1  0.62694146  0.87863299  0.75382348  1
  Br  Br64  1  0.01254683  0.98731183  0.11591486  1
  Br  Br65  1  0.99800298  0.02563836  0.38154210  1
  Br  Br66  1  0.01606899  0.99618521  0.62441594  1
  Br  Br67  1  0.99558539  0.01464685  0.88598627  1
  Br  Br68  1  0.50113641  0.99688286  0.11435878  1
  Br  Br69  1  0.50310957  0.01534612  0.37350810  1
  Br  Br70  1  0.50082231  0.99776208  0.63307156  1
  Br  Br71  1  0.50840008  0.00256993  0.88406416  1
  Br  Br72  1  0.25489186  0.25157913  0.12823254  1
  Br  Br73  1  0.25740043  0.24902962  0.37347074  1
  Br  Br74  1  0.26134410  0.24869895  0.62417879  1
  Br  Br75  1  0.25771228  0.25108459  0.87191546  1
  Br  Br76  1  0.99893121  0.48899259  0.11585647  1
  Br  Br77  1  0.00697964  0.50091586  0.37039438  1
  Br  Br78  1  0.00558540  0.50057066  0.62970428  1
  Br  Br79  1  0.99646444  0.49103244  0.88291505  1
  Br  Br80  1  0.73270853  0.27174313  0.13114647  1
  Br  Br81  1  0.76535053  0.23846007  0.36937603  1
  Br  Br82  1  0.74008159  0.25409235  0.63392412  1
  Br  Br83  1  0.74909648  0.24800187  0.87128671  1
  Br  Br84  1  0.53492342  0.47088541  0.13463067  1
  Br  Br85  1  0.48717905  0.51192762  0.36502397  1
  Br  Br86  1  0.51676149  0.48729674  0.62379386  1
  Br  Br87  1  0.47816225  0.51885899  0.88065639  1
  Br  Br88  1  0.24727067  0.74673444  0.10150987  1
  Br  Br89  1  0.27041629  0.72564808  0.37877979  1
  Br  Br90  1  0.24476115  0.75527506  0.62646322  1
  Br  Br91  1  0.27767791  0.72340161  0.90418098  1
  Br  Br92  1  0.75295471  0.75089260  0.13079127  1
  Br  Br93  1  0.74868109  0.74006061  0.37803946  1
  Br  Br94  1  0.73622506  0.74026038  0.61850582  1
  Br  Br95  1  0.74867778  0.74679544  0.87335213  1
  Ga  Ga96  1  0.99051629  0.02088468  0.00233213  1
  Ga  Ga97  1  0.00599452  0.99662798  0.24948747  1
  Ga  Ga98  1  0.01254990  0.01281102  0.50153721  1
  Ga  Ga99  1  0.00434792  0.99302828  0.75459004  1
  Ga  Ga100  1  0.52543411  0.01194463  0.99780812  1
  Ga  Ga101  1  0.50664692  0.99719097  0.23994158  1
  Ga  Ga102  1  0.51003202  0.01173660  0.48458616  1
  Ga  Ga103  1  0.50107814  0.99831238  0.74940199  1
  Ga  Ga104  1  0.24490591  0.24543772  0.99943597  1
  Ga  Ga105  1  0.25118391  0.24824987  0.24947200  1
  Ga  Ga106  1  0.24527156  0.26824399  0.49949936  1
  Ga  Ga107  1  0.24964192  0.24764424  0.74766771  1
  Ga  Ga108  1  0.00299028  0.50179912  0.99945559  1
  Ga  Ga109  1  0.00300543  0.50110838  0.24891193  1
  Ga  Ga110  1  0.99969812  0.49604043  0.50062351  1
  Ga  Ga111  1  0.00261051  0.50015425  0.75082882  1
  Ga  Ga112  1  0.75180974  0.26492198  0.00163349  1
  Ga  Ga113  1  0.75463276  0.25038531  0.24794617  1
  Ga  Ga114  1  0.74832738  0.26025558  0.49828595  1
  Ga  Ga115  1  0.75294712  0.24571778  0.75176448  1
  Ga  Ga116  1  0.49879518  0.50163768  0.99040032  1
  Ga  Ga117  1  0.50751364  0.49551834  0.24548627  1
  Ga  Ga118  1  0.49924488  0.49084532  0.49006684  1
  Ga  Ga119  1  0.50405436  0.49508418  0.73580421  1
  Ga  Ga120  1  0.23634632  0.79330339  0.99713164  1
  Ga  Ga121  1  0.25651832  0.74806048  0.24913487  1
  Ga  Ga122  1  0.26249177  0.73748749  0.50034116  1
  Ga  Ga123  1  0.25294045  0.74822416  0.75567507  1
  Ga  Ga124  1  0.75278474  0.75605908  0.00051077  1
  Ga  Ga125  1  0.75877636  0.75133763  0.25135365  1
  Ga  Ga126  1  0.75429148  0.73732354  0.50099354  1
  Ga  Ga127  1  0.75167297  0.74954307  0.75046843  1
  Rb  Rb128  1  0.00942233  0.25896353  0.13386241  1
  Rb  Rb129  1  0.99887821  0.25639763  0.36315645  1
  Rb  Rb130  1  0.99784970  0.24636411  0.63554327  1
  Rb  Rb131  1  0.99542522  0.25333033  0.86949660  1
  Rb  Rb132  1  0.49877213  0.24911115  0.12773097  1
  Rb  Rb133  1  0.49423162  0.24868557  0.36205776  1
  Rb  Rb134  1  0.50266051  0.24159331  0.63096296  1
  Rb  Rb135  1  0.49609141  0.25108764  0.86961595  1
  Rb  Rb136  1  0.25191658  0.49258200  0.12467380  1
  Rb  Rb137  1  0.25075410  0.49828803  0.35785839  1
  Rb  Rb138  1  0.24420245  0.50579730  0.63508446  1
  Rb  Rb139  1  0.24317633  0.48386140  0.87583708  1
  Rb  Rb140  1  0.00023075  0.74395314  0.12823780  1
  Rb  Rb141  1  0.00622543  0.73608299  0.36052195  1
  Rb  Rb142  1  0.00818862  0.74720088  0.63780569  1
  Rb  Rb143  1  0.98618774  0.73337872  0.86345591  1
  Rb  Rb144  1  0.75986696  0.50702150  0.12783327  1
  Rb  Rb145  1  0.75558659  0.50617220  0.36993413  1
  Rb  Rb146  1  0.75414202  0.50169484  0.63339651  1
  Rb  Rb147  1  0.75034601  0.50138852  0.87239254  1
  Rb  Rb148  1  0.52008878  0.74624627  0.13535856  1
  Rb  Rb149  1  0.50548230  0.74121491  0.36079603  1
  Rb  Rb150  1  0.50152826  0.75575690  0.64394081  1
  Rb  Rb151  1  0.51033227  0.74713659  0.87056172  1
  Rb  Rb152  1  0.25238837  0.00964817  0.13707055  1
  Rb  Rb153  1  0.25035216  0.01061838  0.36018044  1
  Rb  Rb154  1  0.25376897  0.99640520  0.64059185  1
  Rb  Rb155  1  0.25125549  0.01816214  0.86424901  1
  Rb  Rb156  1  0.75855691  0.99294518  0.13464870  1
  Rb  Rb157  1  0.76132665  0.00841181  0.36166306  1
  Rb  Rb158  1  0.74897948  0.00058003  0.63868214  1
  Rb  Rb159  1  0.75392241  0.99757069  0.86659971  1
