# generated using pymatgen
data_RbGaCl3
_symmetry_space_group_name_H-M   'P 1'
_cell_length_a   14.60132087
_cell_length_b   14.60132087
_cell_length_c   20.64938700
_cell_angle_alpha   90.00000000
_cell_angle_beta   90.00000000
_cell_angle_gamma   90.00000000
_symmetry_Int_Tables_number   1
_chemical_formula_structural   RbGaCl3
_chemical_formula_sum   'Rb32 Ga32 Cl96'
_cell_volume   4402.41980225
_cell_formula_units_Z   32
loop_
 _symmetry_equiv_pos_site_id
 _symmetry_equiv_pos_as_xyz
  1  'x, y, z'
loop_
 _atom_site_type_symbol
 _atom_site_label
 _atom_site_symmetry_multiplicity
 _atom_site_fract_x
 _atom_site_fract_y
 _atom_site_fract_z
 _atom_site_occupancy
  Rb  Rb0  1  0.00325680  0.01488370  0.00741939  1
  Rb  Rb1  1  0.00516835  0.00920961  0.24754219  1
  Rb  Rb2  1  0.01126166  0.99868609  0.48245822  1
  Rb  Rb3  1  0.99035882  0.01834297  0.76405465  1
  Rb  Rb4  1  0.50711629  0.99588936  0.00613355  1
  Rb  Rb5  1  0.49411499  0.00175474  0.24869977  1
  Rb  Rb6  1  0.48894322  0.99242845  0.49580825  1
  Rb  Rb7  1  0.50729295  0.00191966  0.74653445  1
  Rb  Rb8  1  0.26015497  0.23575755  0.00955710  1
  Rb  Rb9  1  0.25355482  0.24140099  0.24911803  1
  Rb  Rb10  1  0.25129903  0.22419559  0.49164260  1
  Rb  Rb11  1  0.25896442  0.21130258  0.72934005  1
  Rb  Rb12  1  0.01011446  0.49087546  0.01294735  1
  Rb  Rb13  1  0.96529550  0.51201765  0.25825572  1
  Rb  Rb14  1  0.00321546  0.53288529  0.48100052  1
  Rb  Rb15  1  0.97099780  0.47929236  0.74053655  1
  Rb  Rb16  1  0.78537439  0.26148778  0.00796986  1
  Rb  Rb17  1  0.74578937  0.27493156  0.24131122  1
  Rb  Rb18  1  0.73776073  0.25661692  0.48628207  1
  Rb  Rb19  1  0.73633237  0.23109797  0.77261125  1
  Rb  Rb20  1  0.54325871  0.50465265  0.99668475  1
  Rb  Rb21  1  0.50131404  0.51592893  0.25205748  1
  Rb  Rb22  1  0.45953032  0.50561053  0.49786233  1
  Rb  Rb23  1  0.51679817  0.48248010  0.75809877  1
  Rb  Rb24  1  0.25703384  0.76931242  0.01726242  1
  Rb  Rb25  1  0.25241538  0.76021214  0.25311132  1
  Rb  Rb26  1  0.24790620  0.76810822  0.48613991  1
  Rb  Rb27  1  0.28613110  0.75427391  0.74963613  1
  Rb  Rb28  1  0.76331289  0.75602104  0.00449188  1
  Rb  Rb29  1  0.73782317  0.75378006  0.24580470  1
  Rb  Rb30  1  0.74271544  0.79399042  0.47671558  1
  Rb  Rb31  1  0.74879371  0.78089191  0.77100985  1
  Ga  Ga32  1  0.01702650  0.26452880  0.13532044  1
  Ga  Ga33  1  0.99736205  0.26135228  0.37912480  1
  Ga  Ga34  1  0.00789996  0.25354185  0.62844187  1
  Ga  Ga35  1  0.02104199  0.25349900  0.88108635  1
  Ga  Ga36  1  0.50652206  0.25269166  0.12643710  1
  Ga  Ga37  1  0.49472012  0.26185231  0.37360411  1
  Ga  Ga38  1  0.48759680  0.25719773  0.61955740  1
  Ga  Ga39  1  0.48093956  0.23508517  0.87888573  1
  Ga  Ga40  1  0.27608324  0.49725593  0.12231477  1
  Ga  Ga41  1  0.23842058  0.50339106  0.37380436  1
  Ga  Ga42  1  0.24206921  0.50576769  0.62665967  1
  Ga  Ga43  1  0.24120843  0.50158384  0.84401277  1
  Ga  Ga44  1  0.01374458  0.73353332  0.13489243  1
  Ga  Ga45  1  0.99465277  0.76307382  0.36918624  1
  Ga  Ga46  1  0.99517815  0.76331773  0.64565730  1
  Ga  Ga47  1  0.00245752  0.73285998  0.88639466  1
  Ga  Ga48  1  0.75134759  0.50773751  0.12435864  1
  Ga  Ga49  1  0.73975530  0.50815602  0.38238110  1
  Ga  Ga50  1  0.71460234  0.52853931  0.60674244  1
  Ga  Ga51  1  0.76386706  0.49090916  0.87244834  1
  Ga  Ga52  1  0.50445764  0.75652662  0.11944165  1
  Ga  Ga53  1  0.49524752  0.75914704  0.36843582  1
  Ga  Ga54  1  0.50897757  0.73719219  0.62222660  1
  Ga  Ga55  1  0.50552122  0.74289443  0.87296117  1
  Ga  Ga56  1  0.25220977  0.99887323  0.12596587  1
  Ga  Ga57  1  0.24913277  0.01177462  0.37227123  1
  Ga  Ga58  1  0.25426619  0.98862987  0.62698714  1
  Ga  Ga59  1  0.24835938  0.97488377  0.87789105  1
  Ga  Ga60  1  0.76382972  0.01884608  0.12821386  1
  Ga  Ga61  1  0.74880847  0.02318335  0.36817458  1
  Ga  Ga62  1  0.74041631  0.01323888  0.62236357  1
  Ga  Ga63  1  0.75694247  0.00033889  0.88409117  1
  Cl  Cl64  1  0.01548002  0.24942861  0.00582767  1
  Cl  Cl65  1  0.02918452  0.29893298  0.27011751  1
  Cl  Cl66  1  0.96200867  0.21805189  0.48617581  1
  Cl  Cl67  1  0.03428107  0.25872526  0.73768889  1
  Cl  Cl68  1  0.49863345  0.22308967  0.99273263  1
  Cl  Cl69  1  0.48702456  0.28888246  0.25992961  1
  Cl  Cl70  1  0.50618868  0.22918100  0.48824607  1
  Cl  Cl71  1  0.50039978  0.25729720  0.76460575  1
  Cl  Cl72  1  0.23112265  0.55542146  0.02555074  1
  Cl  Cl73  1  0.26985203  0.47507424  0.23272835  1
  Cl  Cl74  1  0.23640773  0.54782503  0.49870331  1
  Cl  Cl75  1  0.28930524  0.42523199  0.75752872  1
  Cl  Cl76  1  0.02056598  0.72087293  0.01997868  1
  Cl  Cl77  1  0.97225551  0.78135223  0.24948976  1
  Cl  Cl78  1  0.00781896  0.75672948  0.48150936  1
  Cl  Cl79  1  0.98589953  0.79400687  0.75190493  1
  Cl  Cl80  1  0.77848528  0.53059053  0.98538994  1
  Cl  Cl81  1  0.73694480  0.50057370  0.25637175  1
  Cl  Cl82  1  0.67144978  0.59221589  0.51425212  1
  Cl  Cl83  1  0.75459439  0.44675376  0.76226425  1
  Cl  Cl84  1  0.48236321  0.72996674  0.00983824  1
  Cl  Cl85  1  0.49892444  0.76868755  0.25051527  1
  Cl  Cl86  1  0.49333880  0.75391968  0.48131326  1
  Cl  Cl87  1  0.51429840  0.77757245  0.74777935  1
  Cl  Cl88  1  0.26204972  0.99658297  0.98931057  1
  Cl  Cl89  1  0.25016848  0.99371589  0.24593378  1
  Cl  Cl90  1  0.24581218  0.99711927  0.50303786  1
  Cl  Cl91  1  0.25168331  0.98811194  0.76506438  1
  Cl  Cl92  1  0.74203797  0.03191002  0.01571881  1
  Cl  Cl93  1  0.75282414  0.97712141  0.23692061  1
  Cl  Cl94  1  0.73688928  0.02688630  0.50446812  1
  Cl  Cl95  1  0.74868230  0.00236972  0.74140985  1
  Cl  Cl96  1  0.12709305  0.11662282  0.12818390  1
  Cl  Cl97  1  0.10931989  0.13955493  0.37123499  1
  Cl  Cl98  1  0.09961792  0.13483284  0.60797147  1
  Cl  Cl99  1  0.12556780  0.08297249  0.87924861  1
  Cl  Cl100  1  0.63010581  0.10706067  0.14204646  1
  Cl  Cl101  1  0.62558141  0.16428596  0.35384898  1
  Cl  Cl102  1  0.65336482  0.14060409  0.63209536  1
  Cl  Cl103  1  0.59241692  0.12176887  0.87130205  1
  Cl  Cl104  1  0.39606786  0.40770367  0.09260011  1
  Cl  Cl105  1  0.36399641  0.35852887  0.39130519  1
  Cl  Cl106  1  0.33665425  0.35407540  0.60245838  1
  Cl  Cl107  1  0.42881967  0.38093306  0.89208542  1
  Cl  Cl108  1  0.11029748  0.62035483  0.16578137  1
  Cl  Cl109  1  0.09983164  0.64118256  0.35135084  1
  Cl  Cl110  1  0.06973208  0.63258017  0.63369836  1
  Cl  Cl111  1  0.13292720  0.59712693  0.80717198  1
  Cl  Cl112  1  0.88665700  0.39767048  0.12897520  1
  Cl  Cl113  1  0.88361424  0.38135255  0.38575764  1
  Cl  Cl114  1  0.85729817  0.25067347  0.62980480  1
  Cl  Cl115  1  0.90131688  0.39911691  0.88435180  1
  Cl  Cl116  1  0.60460055  0.63501919  0.13313173  1
  Cl  Cl117  1  0.61783747  0.65366046  0.36117216  1
  Cl  Cl118  1  0.66415193  0.62317213  0.68153968  1
  Cl  Cl119  1  0.63609910  0.59473211  0.86480108  1
  Cl  Cl120  1  0.38737672  0.86491600  0.12715273  1
  Cl  Cl121  1  0.37419028  0.86923980  0.36867018  1
  Cl  Cl122  1  0.36163744  0.85116629  0.61674619  1
  Cl  Cl123  1  0.39745386  0.90994145  0.87604539  1
  Cl  Cl124  1  0.86664560  0.89944284  0.10991519  1
  Cl  Cl125  1  0.88797613  0.88827792  0.37512086  1
  Cl  Cl126  1  0.85108204  0.75491693  0.61556248  1
  Cl  Cl127  1  0.89580347  0.87827348  0.89761514  1
  Cl  Cl128  1  0.86830861  0.13523732  0.13995057  1
  Cl  Cl129  1  0.87983236  0.15539670  0.34062227  1
  Cl  Cl130  1  0.89329901  0.00264237  0.61939800  1
  Cl  Cl131  1  0.88125101  0.14269471  0.87698250  1
  Cl  Cl132  1  0.37270820  0.12160289  0.12871425  1
  Cl  Cl133  1  0.39471818  0.13224395  0.36463851  1
  Cl  Cl134  1  0.39634859  0.10426474  0.62586887  1
  Cl  Cl135  1  0.34617186  0.15751883  0.87016812  1
  Cl  Cl136  1  0.16297495  0.38015347  0.11247081  1
  Cl  Cl137  1  0.11399163  0.36419886  0.41541317  1
  Cl  Cl138  1  0.07253068  0.38244714  0.59567944  1
  Cl  Cl139  1  0.17342307  0.40149351  0.90768770  1
  Cl  Cl140  1  0.87480424  0.65821175  0.13442843  1
  Cl  Cl141  1  0.86986259  0.65784535  0.36969053  1
  Cl  Cl142  1  0.86168060  0.49931354  0.60146965  1
  Cl  Cl143  1  0.86251264  0.61837780  0.84338768  1
  Cl  Cl144  1  0.64485864  0.37110170  0.10970098  1
  Cl  Cl145  1  0.59402116  0.39075721  0.39020817  1
  Cl  Cl146  1  0.63474960  0.39914817  0.61110106  1
  Cl  Cl147  1  0.66813892  0.36512887  0.89921379  1
  Cl  Cl148  1  0.36093466  0.63466123  0.14471004  1
  Cl  Cl149  1  0.38385055  0.63714336  0.36160214  1
  Cl  Cl150  1  0.39739683  0.59724754  0.64550212  1
  Cl  Cl151  1  0.34965656  0.59837775  0.87500343  1
  Cl  Cl152  1  0.10888225  0.85958791  0.13043258  1
  Cl  Cl153  1  0.11704980  0.86967657  0.36235296  1
  Cl  Cl154  1  0.08993679  0.87231583  0.61259681  1
  Cl  Cl155  1  0.16847031  0.83805678  0.87986599  1
  Cl  Cl156  1  0.62401769  0.86400988  0.11326289  1
  Cl  Cl157  1  0.60369736  0.88665641  0.37030019  1
  Cl  Cl158  1  0.64623316  0.89049799  0.61682525  1
  Cl  Cl159  1  0.63339338  0.85690184  0.89688227  1
