# generated using pymatgen
data_RbGeBr3
_symmetry_space_group_name_H-M   'P 1'
_cell_length_a   15.73158156
_cell_length_b   15.73158156
_cell_length_c   22.24781500
_cell_angle_alpha   90.00000000
_cell_angle_beta   90.00000000
_cell_angle_gamma   90.00000000
_symmetry_Int_Tables_number   1
_chemical_formula_structural   RbGeBr3
_chemical_formula_sum   'Rb32 Ge32 Br96'
_cell_volume   5505.94839946
_cell_formula_units_Z   32
loop_
 _symmetry_equiv_pos_site_id
 _symmetry_equiv_pos_as_xyz
  1  'x, y, z'
loop_
 _atom_site_type_symbol
 _atom_site_label
 _atom_site_symmetry_multiplicity
 _atom_site_fract_x
 _atom_site_fract_y
 _atom_site_fract_z
 _atom_site_occupancy
  Br  Br0  1  0.10393273  0.13804517  0.98058016  1
  Br  Br1  1  0.13863245  0.09488065  0.27596004  1
  Br  Br2  1  0.10477835  0.13773212  0.47894691  1
  Br  Br3  1  0.13863617  0.09950722  0.78102003  1
  Br  Br4  1  0.61359180  0.14845258  0.02299695  1
  Br  Br5  1  0.65307102  0.11243431  0.22783159  1
  Br  Br6  1  0.59942620  0.13698629  0.52269441  1
  Br  Br7  1  0.63335117  0.09261984  0.72262767  1
  Br  Br8  1  0.39073846  0.35248343  0.02425469  1
  Br  Br9  1  0.34809379  0.38518834  0.22679468  1
  Br  Br10  1  0.38954491  0.35446397  0.52544154  1
  Br  Br11  1  0.35179645  0.38514410  0.72782675  1
  Br  Br12  1  0.11266985  0.64566625  0.02602377  1
  Br  Br13  1  0.15963345  0.61266045  0.22754119  1
  Br  Br14  1  0.09167587  0.63929688  0.52185349  1
  Br  Br15  1  0.13842515  0.59437350  0.72393435  1
  Br  Br16  1  0.89997509  0.35952192  0.97447042  1
  Br  Br17  1  0.86814684  0.40219834  0.26938864  1
  Br  Br18  1  0.89031600  0.34481159  0.47196294  1
  Br  Br19  1  0.84108239  0.38718054  0.76533520  1
  Br  Br20  1  0.60395718  0.63613514  0.97249839  1
  Br  Br21  1  0.64158372  0.59598761  0.26695050  1
  Br  Br22  1  0.60497439  0.63480267  0.47198065  1
  Br  Br23  1  0.64079414  0.60058894  0.76926844  1
  Br  Br24  1  0.40009051  0.86050475  0.97949647  1
  Br  Br25  1  0.36250285  0.90476466  0.27766303  1
  Br  Br26  1  0.38451637  0.84756436  0.47702474  1
  Br  Br27  1  0.34343477  0.88779275  0.77507576  1
  Br  Br28  1  0.89071440  0.84794682  0.02296227  1
  Br  Br29  1  0.85021201  0.88760888  0.22448104  1
  Br  Br30  1  0.88919677  0.84936229  0.52310688  1
  Br  Br31  1  0.85276403  0.88894254  0.72632771  1
  Br  Br32  1  0.84621233  0.11316175  0.98038708  1
  Br  Br33  1  0.88645810  0.14890698  0.26675652  1
  Br  Br34  1  0.84818685  0.10662654  0.47998796  1
  Br  Br35  1  0.89888233  0.13596803  0.77016266  1
  Br  Br36  1  0.36522968  0.09940017  0.98491045  1
  Br  Br37  1  0.40080875  0.14342771  0.26958479  1
  Br  Br38  1  0.36662839  0.10272089  0.48443222  1
  Br  Br39  1  0.38379703  0.14860350  0.76835213  1
  Br  Br40  1  0.15152489  0.38982555  0.02131586  1
  Br  Br41  1  0.10985832  0.34908385  0.22891869  1
  Br  Br42  1  0.15075638  0.39136777  0.51909989  1
  Br  Br43  1  0.09342559  0.35757103  0.73219440  1
  Br  Br44  1  0.86089584  0.59819768  0.97638629  1
  Br  Br45  1  0.90351344  0.64091829  0.26798374  1
  Br  Br46  1  0.85956978  0.59772495  0.47642243  1
  Br  Br47  1  0.88366296  0.65161049  0.76835921  1
  Br  Br48  1  0.63697709  0.40367538  0.01494894  1
  Br  Br49  1  0.60221675  0.36500304  0.22649038  1
  Br  Br50  1  0.63528205  0.39819004  0.51265463  1
  Br  Br51  1  0.60856724  0.34893049  0.72531607  1
  Br  Br52  1  0.34646303  0.61526678  0.98215688  1
  Br  Br53  1  0.39230022  0.65133690  0.27266981  1
  Br  Br54  1  0.34503138  0.61044767  0.48182442  1
  Br  Br55  1  0.39999412  0.63831650  0.77232229  1
  Br  Br56  1  0.13549328  0.90381940  0.02402064  1
  Br  Br57  1  0.10233696  0.86065043  0.23467499  1
  Br  Br58  1  0.13817775  0.90214966  0.52245035  1
  Br  Br59  1  0.11098806  0.84692903  0.73382534  1
  Br  Br60  1  0.65187058  0.88522477  0.02234300  1
  Br  Br61  1  0.61232749  0.85277485  0.23416502  1
  Br  Br62  1  0.64846912  0.88281832  0.52018968  1
  Br  Br63  1  0.59152390  0.85523355  0.72995078  1
  Br  Br64  1  0.00001180  0.04611490  0.12224472  1
  Br  Br65  1  0.99148592  0.95847262  0.37158896  1
  Br  Br66  1  0.00334040  0.04514541  0.62132178  1
  Br  Br67  1  0.98889848  0.96079857  0.87295175  1
  Br  Br68  1  0.46173401  0.99937730  0.13502613  1
  Br  Br69  1  0.54376986  0.00881552  0.38312708  1
  Br  Br70  1  0.45215814  0.99070478  0.62977843  1
  Br  Br71  1  0.53614688  0.00532176  0.88093426  1
  Br  Br72  1  0.24772638  0.20645454  0.13185992  1
  Br  Br73  1  0.25895290  0.29070317  0.38410424  1
  Br  Br74  1  0.24393570  0.21034253  0.63450663  1
  Br  Br75  1  0.25615302  0.29380686  0.88444959  1
  Br  Br76  1  0.96032447  0.49424313  0.11444168  1
  Br  Br77  1  0.04288623  0.49929415  0.36798234  1
  Br  Br78  1  0.95137906  0.49488442  0.61711895  1
  Br  Br79  1  0.04297200  0.50120810  0.86532478  1
  Br  Br80  1  0.78900195  0.25534807  0.11536199  1
  Br  Br81  1  0.70846394  0.24376993  0.36540377  1
  Br  Br82  1  0.79192333  0.24853535  0.61426469  1
  Br  Br83  1  0.70242594  0.24607452  0.86508025  1
  Br  Br84  1  0.50349802  0.54290670  0.13033593  1
  Br  Br85  1  0.49530618  0.46061029  0.38025162  1
  Br  Br86  1  0.50283101  0.54322525  0.63219105  1
  Br  Br87  1  0.49748239  0.45821658  0.88072979  1
  Br  Br88  1  0.29657085  0.75920079  0.13152630  1
  Br  Br89  1  0.20739116  0.75123595  0.38055432  1
  Br  Br90  1  0.28672141  0.75707964  0.63326088  1
  Br  Br91  1  0.20099435  0.74482784  0.88302223  1
  Br  Br92  1  0.74666889  0.70562054  0.11864239  1
  Br  Br93  1  0.75403845  0.78918557  0.36708108  1
  Br  Br94  1  0.74306882  0.70888264  0.61931556  1
  Br  Br95  1  0.75012961  0.79632881  0.86892937  1
  Ge  Ge96  1  0.00922012  0.00906528  0.00902191  1
  Ge  Ge97  1  0.01004385  0.99270457  0.25846819  1
  Ge  Ge98  1  0.01228993  0.00754730  0.50800207  1
  Ge  Ge99  1  0.00308959  0.00800898  0.76224579  1
  Ge  Ge100  1  0.49286049  0.99583926  0.99317977  1
  Ge  Ge101  1  0.48730287  0.00611258  0.25128507  1
  Ge  Ge102  1  0.50205334  0.00977667  0.49690096  1
  Ge  Ge103  1  0.50305299  0.99293235  0.74046533  1
  Ge  Ge104  1  0.25445185  0.26601060  0.00047242  1
  Ge  Ge105  1  0.24564541  0.25757678  0.24202645  1
  Ge  Ge106  1  0.25483824  0.26676537  0.50011601  1
  Ge  Ge107  1  0.25827151  0.25195474  0.74740668  1
  Ge  Ge108  1  0.98610601  0.49669098  0.99883429  1
  Ge  Ge109  1  0.99584137  0.50530259  0.25713652  1
  Ge  Ge110  1  0.99212314  0.50915932  0.50441706  1
  Ge  Ge111  1  0.01157743  0.49717988  0.75046810  1
  Ge  Ge112  1  0.74741812  0.24171746  0.00243283  1
  Ge  Ge113  1  0.75045501  0.24048517  0.25223261  1
  Ge  Ge114  1  0.76433412  0.24511433  0.49849686  1
  Ge  Ge115  1  0.74024202  0.25869884  0.75153970  1
  Ge  Ge116  1  0.50968549  0.50344852  0.99333838  1
  Ge  Ge117  1  0.51144755  0.50146932  0.24364578  1
  Ge  Ge118  1  0.51048308  0.50239512  0.49280494  1
  Ge  Ge119  1  0.50432095  0.51487861  0.74856614  1
  Ge  Ge120  1  0.24019924  0.73997049  0.99618050  1
  Ge  Ge121  1  0.26035348  0.74227754  0.24503443  1
  Ge  Ge122  1  0.25437922  0.74704058  0.49144381  1
  Ge  Ge123  1  0.24937240  0.75811999  0.74684731  1
  Ge  Ge124  1  0.75461133  0.75705758  0.00821705  1
  Ge  Ge125  1  0.74830543  0.76339797  0.25097056  1
  Ge  Ge126  1  0.75446152  0.75614562  0.50846335  1
  Ge  Ge127  1  0.75924906  0.75931100  0.75494074  1
  Rb  Rb128  1  0.00965320  0.26408563  0.10469798  1
  Rb  Rb129  1  0.02272062  0.26332363  0.36117096  1
  Rb  Rb130  1  0.01103438  0.26479147  0.60355882  1
  Rb  Rb131  1  0.02189576  0.26310024  0.86422005  1
  Rb  Rb132  1  0.48318938  0.22949220  0.13620517  1
  Rb  Rb133  1  0.49041422  0.24076845  0.39593907  1
  Rb  Rb134  1  0.47689199  0.22475285  0.63607297  1
  Rb  Rb135  1  0.48491534  0.23762783  0.89360504  1
  Rb  Rb136  1  0.27392482  0.51835463  0.11325618  1
  Rb  Rb137  1  0.26450309  0.50914239  0.35461656  1
  Rb  Rb138  1  0.27314996  0.51758669  0.61390218  1
  Rb  Rb139  1  0.26306740  0.51154596  0.85656663  1
  Rb  Rb140  1  0.98499254  0.73219186  0.13781101  1
  Rb  Rb141  1  0.98683439  0.73972815  0.39431932  1
  Rb  Rb142  1  0.98089739  0.73076231  0.63873761  1
  Rb  Rb143  1  0.98273383  0.74045916  0.89225242  1
  Rb  Rb144  1  0.74256407  0.48558929  0.13963929  1
  Rb  Rb145  1  0.73256507  0.47590817  0.38161812  1
  Rb  Rb146  1  0.73295322  0.48824505  0.63789958  1
  Rb  Rb147  1  0.73156908  0.47844241  0.88323499  1
  Rb  Rb148  1  0.51446216  0.76177387  0.10825377  1
  Rb  Rb149  1  0.52132622  0.77422569  0.36585350  1
  Rb  Rb150  1  0.50588144  0.75964289  0.60277010  1
  Rb  Rb151  1  0.51837770  0.77002349  0.86460922  1
  Rb  Rb152  1  0.24149699  0.98671168  0.14772540  1
  Rb  Rb153  1  0.23346816  0.98371794  0.39176621  1
  Rb  Rb154  1  0.23245738  0.99082675  0.64922118  1
  Rb  Rb155  1  0.23185129  0.97933113  0.89300939  1
  Rb  Rb156  1  0.76985446  0.02001302  0.11292263  1
  Rb  Rb157  1  0.76176413  0.00895319  0.35364708  1
  Rb  Rb158  1  0.76967959  0.01624538  0.61229059  1
  Rb  Rb159  1  0.75593206  0.01609810  0.85501412  1
