# generated using pymatgen
data_RbGeI3
_symmetry_space_group_name_H-M   'P 1'
_cell_length_a   16.83897018
_cell_length_b   16.83897018
_cell_length_c   23.81390000
_cell_angle_alpha   90.00000000
_cell_angle_beta   90.00000000
_cell_angle_gamma   90.00000000
_symmetry_Int_Tables_number   1
_chemical_formula_structural   RbGeI3
_chemical_formula_sum   'Rb32 Ge32 I96'
_cell_volume   6752.45317294
_cell_formula_units_Z   32
loop_
 _symmetry_equiv_pos_site_id
 _symmetry_equiv_pos_as_xyz
  1  'x, y, z'
loop_
 _atom_site_type_symbol
 _atom_site_label
 _atom_site_symmetry_multiplicity
 _atom_site_fract_x
 _atom_site_fract_y
 _atom_site_fract_z
 _atom_site_occupancy
  Ge  Ge0  1  0.98881303  0.98266198  0.99468867  1
  Ge  Ge1  1  0.00924768  0.98691541  0.24241629  1
  Ge  Ge2  1  0.00980847  0.00805271  0.48786550  1
  Ge  Ge3  1  0.99622738  0.01287082  0.74349980  1
  Ge  Ge4  1  0.48785516  0.99445060  0.00455100  1
  Ge  Ge5  1  0.50107862  0.99138689  0.25850734  1
  Ge  Ge6  1  0.50918193  0.98495742  0.50141654  1
  Ge  Ge7  1  0.51097481  0.98782444  0.75927830  1
  Ge  Ge8  1  0.23934917  0.24029153  0.98645325  1
  Ge  Ge9  1  0.24350716  0.23281406  0.24174438  1
  Ge  Ge10  1  0.26792372  0.25148749  0.49365212  1
  Ge  Ge11  1  0.25532809  0.24277707  0.73788127  1
  Ge  Ge12  1  0.98730805  0.50668703  0.99564231  1
  Ge  Ge13  1  0.00089828  0.48352863  0.24594087  1
  Ge  Ge14  1  0.00463152  0.49507072  0.49469484  1
  Ge  Ge15  1  0.01121508  0.47954339  0.75007553  1
  Ge  Ge16  1  0.75413561  0.22964186  0.99785338  1
  Ge  Ge17  1  0.74241853  0.23948199  0.23863054  1
  Ge  Ge18  1  0.74537370  0.23717808  0.49549719  1
  Ge  Ge19  1  0.73996869  0.25903117  0.74379156  1
  Ge  Ge20  1  0.48960110  0.48144494  0.99289480  1
  Ge  Ge21  1  0.51087749  0.48604554  0.24230772  1
  Ge  Ge22  1  0.51220024  0.50800165  0.49096303  1
  Ge  Ge23  1  0.49692802  0.51281602  0.74373272  1
  Ge  Ge24  1  0.25618988  0.73794665  0.01295858  1
  Ge  Ge25  1  0.24346347  0.73463534  0.25197062  1
  Ge  Ge26  1  0.24506858  0.74140427  0.50958491  1
  Ge  Ge27  1  0.23910157  0.74922823  0.75925258  1
  Ge  Ge28  1  0.73907189  0.73833934  0.98920985  1
  Ge  Ge29  1  0.74473346  0.73504773  0.24475414  1
  Ge  Ge30  1  0.77107825  0.75052812  0.49645549  1
  Ge  Ge31  1  0.75357011  0.74321730  0.73982943  1
  I  I32  1  0.14689935  0.10312715  0.97224172  1
  I  I33  1  0.10795200  0.14909399  0.27590028  1
  I  I34  1  0.09373623  0.15135018  0.48636003  1
  I  I35  1  0.09903395  0.13840378  0.77098183  1
  I  I36  1  0.65383998  0.10280980  0.02548698  1
  I  I37  1  0.60209071  0.15212175  0.22821550  1
  I  I38  1  0.59996365  0.15920908  0.49905022  1
  I  I39  1  0.61253333  0.15285147  0.73172021  1
  I  I40  1  0.35986240  0.38836794  0.02602296  1
  I  I41  1  0.40523016  0.35648201  0.23020691  1
  I  I42  1  0.38724951  0.35878639  0.52324382  1
  I  I43  1  0.38712245  0.34649279  0.72527845  1
  I  I44  1  0.15461522  0.60743551  0.03142077  1
  I  I45  1  0.10182085  0.65169162  0.23784746  1
  I  I46  1  0.09990128  0.66238000  0.50763672  1
  I  I47  1  0.10985054  0.64924284  0.73977288  1
  I  I48  1  0.85726340  0.40455560  0.98018269  1
  I  I49  1  0.89248828  0.36189136  0.26821903  1
  I  I50  1  0.89433522  0.36940172  0.49346932  1
  I  I51  1  0.90462704  0.35635056  0.77355004  1
  I  I52  1  0.65001267  0.59925605  0.97661652  1
  I  I53  1  0.61134812  0.64704817  0.27687002  1
  I  I54  1  0.59811214  0.64949463  0.48851312  1
  I  I55  1  0.59880727  0.63869120  0.77266110  1
  I  I56  1  0.35692949  0.89899428  0.97622629  1
  I  I57  1  0.39386214  0.86463198  0.26987032  1
  I  I58  1  0.39275186  0.86717927  0.48862114  1
  I  I59  1  0.40755678  0.85730082  0.76764441  1
  I  I60  1  0.85922546  0.88928797  0.02707654  1
  I  I61  1  0.90426205  0.85715977  0.23044754  1
  I  I62  1  0.88705970  0.86146862  0.52473898  1
  I  I63  1  0.88280050  0.85134992  0.73140556  1
  I  I64  1  0.89660950  0.15053286  0.01978286  1
  I  I65  1  0.84550678  0.10655657  0.23065819  1
  I  I66  1  0.83907519  0.10439589  0.51921371  1
  I  I67  1  0.85938688  0.10495942  0.72991864  1
  I  I68  1  0.40139179  0.13623677  0.01910598  1
  I  I69  1  0.34260286  0.10176003  0.22843565  1
  I  I70  1  0.35407057  0.11012706  0.51043264  1
  I  I71  1  0.35201004  0.10439792  0.72624681  1
  I  I72  1  0.11121684  0.34792059  0.97998945  1
  I  I73  1  0.14022617  0.39733261  0.27149022  1
  I  I74  1  0.14417875  0.40118608  0.48671561  1
  I  I75  1  0.15080460  0.39765040  0.77244003  1
  I  I76  1  0.89998085  0.64063565  0.02684750  1
  I  I77  1  0.84738947  0.60541325  0.23455711  1
  I  I78  1  0.86005867  0.61296409  0.52209493  1
  I  I79  1  0.85513096  0.60970032  0.72792321  1
  I  I80  1  0.59980953  0.35729514  0.97900322  1
  I  I81  1  0.64624517  0.40041530  0.27186438  1
  I  I82  1  0.64567029  0.41067841  0.48060199  1
  I  I83  1  0.64967397  0.39528291  0.77021926  1
  I  I84  1  0.39688615  0.65075245  0.02245345  1
  I  I85  1  0.34869413  0.60523376  0.23604812  1
  I  I86  1  0.34048367  0.60665197  0.52183556  1
  I  I87  1  0.35892000  0.60486148  0.72933082  1
  I  I88  1  0.10094042  0.85840549  0.98261901  1
  I  I89  1  0.14585231  0.90072201  0.26859980  1
  I  I90  1  0.14497965  0.91163719  0.47670502  1
  I  I91  1  0.14924685  0.89043526  0.77007074  1
  I  I92  1  0.60861528  0.84329967  0.97870025  1
  I  I93  1  0.63851612  0.89792556  0.27295406  1
  I  I94  1  0.64233747  0.89291264  0.47841721  1
  I  I95  1  0.65091981  0.90227000  0.77013916  1
  I  I96  1  0.04315178  0.00824030  0.12723373  1
  I  I97  1  0.96427192  0.00237453  0.37539291  1
  I  I98  1  0.02742003  0.00389744  0.62811043  1
  I  I99  1  0.94966359  0.99088201  0.87955054  1
  I  I100  1  0.49457233  0.95524125  0.11990345  1
  I  I101  1  0.49249168  0.04377523  0.36966716  1
  I  I102  1  0.51550732  0.97284841  0.61986159  1
  I  I103  1  0.50432987  0.04095150  0.87142169  1
  I  I104  1  0.20539900  0.24519055  0.12746195  1
  I  I105  1  0.29609089  0.26066003  0.37727309  1
  I  I106  1  0.20412148  0.24463375  0.62603199  1
  I  I107  1  0.29127133  0.25117547  0.87529702  1
  I  I108  1  0.00717476  0.45521399  0.12996736  1
  I  I109  1  0.99502348  0.53347660  0.38016202  1
  I  I110  1  0.01351753  0.45960878  0.63318305  1
  I  I111  1  0.00539514  0.54890202  0.88252520  1
  I  I112  1  0.75173503  0.29173067  0.12690880  1
  I  I113  1  0.75877140  0.23262093  0.37781527  1
  I  I114  1  0.75225473  0.28826227  0.62885239  1
  I  I115  1  0.75235841  0.20367551  0.88065192  1
  I  I116  1  0.54441023  0.50634371  0.12761279  1
  I  I117  1  0.46722848  0.50566426  0.37741810  1
  I  I118  1  0.52691692  0.50832970  0.62861073  1
  I  I119  1  0.44671480  0.49132519  0.87895269  1
  I  I120  1  0.25573409  0.79332116  0.12491572  1
  I  I121  1  0.24996984  0.72623727  0.37196008  1
  I  I122  1  0.24424625  0.78433737  0.62395355  1
  I  I123  1  0.24748790  0.71388272  0.87546721  1
  I  I124  1  0.70628302  0.74583018  0.13028901  1
  I  I125  1  0.80153588  0.75371489  0.38036338  1
  I  I126  1  0.70240684  0.74971363  0.62810569  1
  I  I127  1  0.78971584  0.74850074  0.87779633  1
  Rb  Rb128  1  0.98574524  0.23562655  0.14906043  1
  Rb  Rb129  1  0.01438071  0.28334345  0.38024844  1
  Rb  Rb130  1  0.97549128  0.23310396  0.62318844  1
  Rb  Rb131  1  0.98106526  0.22517693  0.88684317  1
  Rb  Rb132  1  0.52065559  0.26997362  0.11081005  1
  Rb  Rb133  1  0.52180515  0.27405208  0.36920084  1
  Rb  Rb134  1  0.47981972  0.21642668  0.62040408  1
  Rb  Rb135  1  0.51121014  0.26361731  0.85291361  1
  Rb  Rb136  1  0.23637339  0.47218997  0.14026114  1
  Rb  Rb137  1  0.25024613  0.50975723  0.37857243  1
  Rb  Rb138  1  0.24302047  0.47025467  0.62998794  1
  Rb  Rb139  1  0.23053089  0.49433307  0.90086040  1
  Rb  Rb140  1  0.02610501  0.77187303  0.11617349  1
  Rb  Rb141  1  0.02356545  0.77346615  0.37188418  1
  Rb  Rb142  1  0.99383513  0.73935732  0.62779083  1
  Rb  Rb143  1  0.00872994  0.76917749  0.85750955  1
  Rb  Rb144  1  0.76246501  0.51137671  0.10727773  1
  Rb  Rb145  1  0.76831550  0.52568072  0.37611637  1
  Rb  Rb146  1  0.74076077  0.50289315  0.62159198  1
  Rb  Rb147  1  0.77716649  0.52001827  0.86068553  1
  Rb  Rb148  1  0.48676422  0.73699662  0.15119097  1
  Rb  Rb149  1  0.48208078  0.74420143  0.37944755  1
  Rb  Rb150  1  0.47397507  0.73870161  0.62552767  1
  Rb  Rb151  1  0.47532037  0.72584343  0.88594952  1
  Rb  Rb152  1  0.25940715  0.01190013  0.09968664  1
  Rb  Rb153  1  0.26576687  0.02694475  0.37072850  1
  Rb  Rb154  1  0.24160633  0.00078639  0.61550388  1
  Rb  Rb155  1  0.27404193  0.01992543  0.85948694  1
  Rb  Rb156  1  0.72809539  0.97267974  0.13969698  1
  Rb  Rb157  1  0.74742348  0.01656374  0.37672342  1
  Rb  Rb158  1  0.74299888  0.97343554  0.62963681  1
  Rb  Rb159  1  0.73367526  0.98547142  0.90051012  1
