# generated using pymatgen
data_RbGeCl3
_symmetry_space_group_name_H-M   'P 1'
_cell_length_a   14.96883113
_cell_length_b   14.96883113
_cell_length_c   21.16912400
_cell_angle_alpha   90.00000000
_cell_angle_beta   90.00000000
_cell_angle_gamma   90.00000000
_symmetry_Int_Tables_number   1
_chemical_formula_structural   RbGeCl3
_chemical_formula_sum   'Rb32 Ge32 Cl96'
_cell_volume   4743.27893693
_cell_formula_units_Z   32
loop_
 _symmetry_equiv_pos_site_id
 _symmetry_equiv_pos_as_xyz
  1  'x, y, z'
loop_
 _atom_site_type_symbol
 _atom_site_label
 _atom_site_symmetry_multiplicity
 _atom_site_fract_x
 _atom_site_fract_y
 _atom_site_fract_z
 _atom_site_occupancy
  Cl  Cl0  1  0.15383631  0.11686580  0.98588265  1
  Cl  Cl1  1  0.11663127  0.15092284  0.26822290  1
  Cl  Cl2  1  0.15772138  0.11010723  0.48027207  1
  Cl  Cl3  1  0.11360464  0.15329349  0.76918217  1
  Cl  Cl4  1  0.63354419  0.09755412  -0.02747699  1
  Cl  Cl5  1  0.61909286  0.15200344  0.26390014  1
  Cl  Cl6  1  0.63482084  0.09546705  0.47602564  1
  Cl  Cl7  1  0.58843141  0.13175275  0.76418888  1
  Cl  Cl8  1  0.36195075  0.40629586  0.01805022  1
  Cl  Cl9  1  0.40230966  0.36683500  0.23284687  1
  Cl  Cl10  1  0.36880970  0.39984064  0.51639004  1
  Cl  Cl11  1  0.40103674  0.36798256  0.73233573  1
  Cl  Cl12  1  0.12723690  0.59979803  -0.02088638  1
  Cl  Cl13  1  0.11771513  0.65163801  0.26663178  1
  Cl  Cl14  1  0.13260749  0.59566818  0.48295262  1
  Cl  Cl15  1  0.09088858  0.63242095  0.76751294  1
  Cl  Cl16  1  0.84545515  0.38219058  0.02029829  1
  Cl  Cl17  1  0.90663773  0.36236975  0.23121520  1
  Cl  Cl18  1  0.84864116  0.37771191  0.52000324  1
  Cl  Cl19  1  0.87824788  0.34408135  0.73117160  1
  Cl  Cl20  1  0.65396302  0.61782047  0.98641188  1
  Cl  Cl21  1  0.61586676  0.65082177  0.27333751  1
  Cl  Cl22  1  0.65911222  0.61006676  0.48345026  1
  Cl  Cl23  1  0.61367069  0.65344538  0.77116908  1
  Cl  Cl24  1  0.34803588  0.88399220  0.01849977  1
  Cl  Cl25  1  0.40514275  0.86307452  0.22821122  1
  Cl  Cl26  1  0.34965279  0.88043450  0.52251381  1
  Cl  Cl27  1  0.38269768  0.83822044  0.72920535  1
  Cl  Cl28  1  0.86104897  0.90870749  0.02049098  1
  Cl  Cl29  1  0.90009628  0.86515360  0.23257126  1
  Cl  Cl30  1  0.86554502  0.90531531  0.51842556  1
  Cl  Cl31  1  0.90205277  0.86497977  0.73256678  1
  Cl  Cl32  1  0.88465201  0.15724864  -0.02229834  1
  Cl  Cl33  1  0.86850418  0.09385722  0.27217528  1
  Cl  Cl34  1  0.90162318  0.13393053  0.47533039  1
  Cl  Cl35  1  0.84491644  0.11784325  0.77364183  1
  Cl  Cl36  1  0.38392426  0.15014952  0.02368979  1
  Cl  Cl37  1  0.36580733  0.09732085  0.22389874  1
  Cl  Cl38  1  0.40981333  0.13037431  0.51950465  1
  Cl  Cl39  1  0.36159006  0.09682437  0.72330194  1
  Cl  Cl40  1  0.09672261  0.36557896  0.97502550  1
  Cl  Cl41  1  0.15268236  0.38506216  0.27316606  1
  Cl  Cl42  1  0.12126087  0.34208759  0.47615602  1
  Cl  Cl43  1  0.15172129  0.38560800  0.77210379  1
  Cl  Cl44  1  0.88364668  0.65029273  0.02527278  1
  Cl  Cl45  1  0.86746442  0.59596274  0.22655439  1
  Cl  Cl46  1  0.90597765  0.63082441  0.52081503  1
  Cl  Cl47  1  0.86426485  0.59710688  0.72727801  1
  Cl  Cl48  1  0.59326962  0.36598339  0.02462707  1
  Cl  Cl49  1  0.65350692  0.38204967  0.22644831  1
  Cl  Cl50  1  0.61493823  0.34453021  0.52313646  1
  Cl  Cl51  1  0.63354979  0.40475169  0.72616336  1
  Cl  Cl52  1  0.38043774  0.65646762  0.97915118  1
  Cl  Cl53  1  0.36616520  0.59403927  0.27335956  1
  Cl  Cl54  1  0.40192285  0.62964754  0.47705088  1
  Cl  Cl55  1  0.34545580  0.61269158  0.77434377  1
  Cl  Cl56  1  0.09277560  0.86882952  0.02525264  1
  Cl  Cl57  1  0.15315858  0.88009978  0.22710269  1
  Cl  Cl58  1  0.11481279  0.84695395  0.52330258  1
  Cl  Cl59  1  0.13497566  0.90364350  0.72953014  1
  Cl  Cl60  1  0.59822006  0.86316419  -0.02574028  1
  Cl  Cl61  1  0.65160987  0.88486122  0.27228234  1
  Cl  Cl62  1  0.61844303  0.83982975  0.47254068  1
  Cl  Cl63  1  0.65195541  0.88703657  0.77119374  1
  Cl  Cl64  1  -0.00199585  0.04185012  0.11838603  1
  Cl  Cl65  1  0.00708581  0.95604895  0.36745730  1
  Cl  Cl66  1  0.99678320  0.04512294  0.61588638  1
  Cl  Cl67  1  0.00607000  -0.03709066  0.86519377  1
  Cl  Cl68  1  0.54463898  -0.00521493  0.10941069  1
  Cl  Cl69  1  0.45913048  0.99824581  0.36009080  1
  Cl  Cl70  1  0.54538485  -0.00953058  0.61220940  1
  Cl  Cl71  1  0.45199013  0.99965763  0.86189281  1
  Cl  Cl72  1  0.20955819  0.26057110  0.13547707  1
  Cl  Cl73  1  0.29376662  0.24425922  0.38325912  1
  Cl  Cl74  1  0.21112778  0.25587130  0.63582685  1
  Cl  Cl75  1  0.29304823  0.24486427  0.88522646  1
  Cl  Cl76  1  0.03996214  0.49804492  0.13242694  1
  Cl  Cl77  1  0.96226090  0.50421256  0.38478725  1
  Cl  Cl78  1  0.03702192  0.49532162  0.63529118  1
  Cl  Cl79  1  -0.04714049  0.50495136  0.88337764  1
  Cl  Cl80  1  0.75529743  0.20743828  0.11382070  1
  Cl  Cl81  1  0.74941121  0.28988767  0.36453046  1
  Cl  Cl82  1  0.75281401  0.20495976  0.61535325  1
  Cl  Cl83  1  0.74319663  0.29200344  0.86387217  1
  Cl  Cl84  1  0.49398945  0.54116904  0.13733041  1
  Cl  Cl85  1  0.50588256  0.45814426  0.38579245  1
  Cl  Cl86  1  0.49143609  0.54136196  0.63494562  1
  Cl  Cl87  1  0.50049037  0.46341929  0.88743341  1
  Cl  Cl88  1  0.25121423  0.70986632  0.13512941  1
  Cl  Cl89  1  0.24466219  0.79123721  0.38725997  1
  Cl  Cl90  1  0.24825182  0.70177910  0.63452602  1
  Cl  Cl91  1  0.24203867  0.79376242  0.88404115  1
  Cl  Cl92  1  0.70719339  0.75665765  0.13674999  1
  Cl  Cl93  1  0.79506405  0.74485884  0.38429437  1
  Cl  Cl94  1  0.71138253  0.75566899  0.63653224  1
  Cl  Cl95  1  0.79354562  0.74704950  0.88644555  1
  Ge  Ge96  1  -0.00457701  0.99748736  0.00846832  1
  Ge  Ge97  1  -0.00585266  -0.00727321  0.25554273  1
  Ge  Ge98  1  0.99226191  0.00568973  0.50377787  1
  Ge  Ge99  1  0.00192987  -0.00955840  0.75115649  1
  Ge  Ge100  1  0.51142776  -0.00353728  -0.00348699  1
  Ge  Ge101  1  0.49041290  -0.00245081  0.24719957  1
  Ge  Ge102  1  0.50726582  0.00277000  0.50156444  1
  Ge  Ge103  1  0.48928513  0.00431045  0.75046674  1
  Ge  Ge104  1  0.25643367  0.24260599  -0.00252029  1
  Ge  Ge105  1  0.24008129  0.25276586  0.24873904  1
  Ge  Ge106  1  0.24855158  0.24323252  0.49282191  1
  Ge  Ge107  1  0.23915163  0.25234663  0.74972800  1
  Ge  Ge108  1  0.00249813  0.49661799  0.99264247  1
  Ge  Ge109  1  -0.00423332  0.49708388  0.24264636  1
  Ge  Ge110  1  0.00035807  0.50353841  0.49682672  1
  Ge  Ge111  1  -0.00469791  0.50442028  0.74717670  1
  Ge  Ge112  1  0.75543779  0.24905059  0.00255596  1
  Ge  Ge113  1  0.74545455  0.25396648  0.25223678  1
  Ge  Ge114  1  0.74653351  0.25155483  0.50588964  1
  Ge  Ge115  1  0.75130924  0.24796453  0.75271282  1
  Ge  Ge116  1  0.49686736  0.49165766  0.00121768  1
  Ge  Ge117  1  0.49394846  0.49939864  0.24898775  1
  Ge  Ge118  1  0.49516995  0.49848836  0.49696616  1
  Ge  Ge119  1  0.50069217  0.49585614  0.74446726  1
  Ge  Ge120  1  0.25416142  0.75674136  -0.00448986  1
  Ge  Ge121  1  0.24508930  0.74835495  0.24631125  1
  Ge  Ge122  1  0.24698643  0.75885089  0.50078229  1
  Ge  Ge123  1  0.25455594  0.74055335  0.74575607  1
  Ge  Ge124  1  0.75638727  0.74347908  -0.00146530  1
  Ge  Ge125  1  0.73852334  0.75198791  0.24999502  1
  Ge  Ge126  1  0.74731994  0.74507927  0.49346112  1
  Ge  Ge127  1  0.73838525  0.75303694  0.75015342  1
  Rb  Rb128  1  -0.00773397  0.26223761  0.10536731  1
  Rb  Rb129  1  0.98425546  0.26653778  0.36408380  1
  Rb  Rb130  1  0.99220107  0.26473591  0.60904360  1
  Rb  Rb131  1  -0.02005507  0.27027572  0.86165683  1
  Rb  Rb132  1  0.51482515  0.23208358  0.13592467  1
  Rb  Rb133  1  0.51473379  0.23763362  0.38861195  1
  Rb  Rb134  1  0.51294761  0.23482094  0.63599088  1
  Rb  Rb135  1  0.51326683  0.24201688  0.88950589  1
  Rb  Rb136  1  0.26069059  0.48963960  0.14393193  1
  Rb  Rb137  1  0.26656778  0.48210605  0.38756528  1
  Rb  Rb138  1  0.25892185  0.48355036  0.63906349  1
  Rb  Rb139  1  0.26402442  0.48344729  0.88720191  1
  Rb  Rb140  1  0.01581680  0.73268372  0.13611640  1
  Rb  Rb141  1  0.01509156  0.73739093  0.39134808  1
  Rb  Rb142  1  0.01458944  0.73172083  0.63650906  1
  Rb  Rb143  1  0.01268557  0.74332567  0.89078837  1
  Rb  Rb144  1  0.73259688  0.51676745  0.11559445  1
  Rb  Rb145  1  0.74235668  0.51027725  0.35716417  1
  Rb  Rb146  1  0.73700936  0.51439224  0.61372451  1
  Rb  Rb147  1  0.73456494  0.51324515  0.85978102  1
  Rb  Rb148  1  0.49128151  0.75880964  0.10385301  1
  Rb  Rb149  1  0.47625819  0.76532470  0.36346433  1
  Rb  Rb150  1  0.49358543  0.75865824  0.60625552  1
  Rb  Rb151  1  0.47782437  0.76720728  0.86287814  1
  Rb  Rb152  1  0.23213340  0.01465163  0.11515505  1
  Rb  Rb153  1  0.23900741  0.00849546  0.35459640  1
  Rb  Rb154  1  0.23106020  0.01569167  0.61289417  1
  Rb  Rb155  1  0.23401328  0.01368573  0.86012367  1
  Rb  Rb156  1  0.75892074  -0.00892447  0.14610091  1
  Rb  Rb157  1  0.77001159  -0.02036253  0.38531272  1
  Rb  Rb158  1  0.76242781  -0.01123831  0.64356921  1
  Rb  Rb159  1  0.77160417  -0.01917570  0.88491921  1
