# generated using pymatgen
data_RbGeF3
_symmetry_space_group_name_H-M   'P 1'
_cell_length_a   12.68426529
_cell_length_b   12.68426529
_cell_length_c   17.93826100
_cell_angle_alpha   90.00000000
_cell_angle_beta   90.00000000
_cell_angle_gamma   90.00000000
_symmetry_Int_Tables_number   1
_chemical_formula_structural   RbGeF3
_chemical_formula_sum   'Rb32 Ge32 F96'
_cell_volume   2886.09732256
_cell_formula_units_Z   32
loop_
 _symmetry_equiv_pos_site_id
 _symmetry_equiv_pos_as_xyz
  1  'x, y, z'
loop_
 _atom_site_type_symbol
 _atom_site_label
 _atom_site_symmetry_multiplicity
 _atom_site_fract_x
 _atom_site_fract_y
 _atom_site_fract_z
 _atom_site_occupancy
  F  F0  1  0.13874975  0.16750288  0.00596752  1
  F  F1  1  0.16404876  0.15993928  0.23634086  1
  F  F2  1  0.13690957  0.07781379  0.50686442  1
  F  F3  1  0.08649489  0.08717022  0.74785573  1
  F  F4  1  0.55036112  0.11971705  0.00533518  1
  F  F5  1  0.61737067  0.09671793  0.21293657  1
  F  F6  1  0.62423059  0.09378689  0.53433148  1
  F  F7  1  0.55301092  0.14136646  0.73995526  1
  F  F8  1  0.41058040  0.41274151  0.98328402  1
  F  F9  1  0.39046709  0.43612757  0.25905110  1
  F  F10  1  0.37186906  0.35389236  0.50780924  1
  F  F11  1  0.34413559  0.34993694  0.77122381  1
  F  F12  1  0.08169931  0.59163284  0.01086317  1
  F  F13  1  0.11096469  0.59408815  0.21218607  1
  F  F14  1  0.10438500  0.61773849  0.52034461  1
  F  F15  1  0.05220295  0.63609587  0.73771264  1
  F  F16  1  0.85236544  0.31829067  0.97603870  1
  F  F17  1  0.83231474  0.37563337  0.27873941  1
  F  F18  1  0.84297358  0.38138315  0.47122917  1
  F  F19  1  0.88128824  0.30373081  0.76424351  1
  F  F20  1  0.65396296  0.65269052  0.05993607  1
  F  F21  1  0.66443774  0.66991422  0.25075897  1
  F  F22  1  0.52060615  0.68530681  0.50027964  1
  F  F23  1  0.60343611  0.59147395  0.72982160  1
  F  F24  1  0.35288441  0.82629218  0.95767387  1
  F  F25  1  0.33286809  0.87490203  0.26398945  1
  F  F26  1  0.33242393  0.89707996  0.47368307  1
  F  F27  1  0.36203634  0.81447879  0.76864706  1
  F  F28  1  0.90964255  0.88886961  0.99043973  1
  F  F29  1  0.90638159  0.93042632  0.29937294  1
  F  F30  1  0.84548538  0.83878294  0.51352470  1
  F  F31  1  0.84034233  0.84148429  0.79826815  1
  F  F32  1  0.91661248  0.09645617  0.01648519  1
  F  F33  1  0.84167246  0.16200184  0.27245303  1
  F  F34  1  0.94843987  0.16706321  0.49475495  1
  F  F35  1  0.87575891  0.06890468  0.77835705  1
  F  F36  1  0.35034769  0.04810517  0.99175393  1
  F  F37  1  0.40576833  0.10447802  0.24272212  1
  F  F38  1  0.42531017  0.12761951  0.48469440  1
  F  F39  1  0.32414506  0.14073827  0.79197441  1
  F  F40  1  0.18856692  0.37266813  0.01534190  1
  F  F41  1  0.16723907  0.36822229  0.20721083  1
  F  F42  1  0.15633033  0.35322830  0.53166727  1
  F  F43  1  0.11896668  0.43198053  0.73387210  1
  F  F44  1  0.87301338  0.55524634  0.98990841  1
  F  F45  1  0.89511796  0.59927054  0.21914694  1
  F  F46  1  0.89608733  0.60939023  0.48673991  1
  F  F47  1  0.82479638  0.62968761  0.78590835  1
  F  F48  1  0.64670527  0.32881959  0.00674721  1
  F  F49  1  0.60262015  0.42925312  0.26824316  1
  F  F50  1  0.64349551  0.35370768  0.51509647  1
  F  F51  1  0.67960613  0.36303014  0.73878012  1
  F  F52  1  0.43538569  0.61913688  0.01736186  1
  F  F53  1  0.33702562  0.66563451  0.24382748  1
  F  F54  1  0.34971536  0.56730915  0.48497113  1
  F  F55  1  0.39410855  0.58261237  0.76230134  1
  F  F56  1  0.14195176  0.82188311  0.99285170  1
  F  F57  1  0.11512997  0.93114251  0.27349891  1
  F  F58  1  0.12844962  0.85191338  0.51305789  1
  F  F59  1  0.15854001  0.85319921  0.73696144  1
  F  F60  1  0.67794081  0.86607542  0.03682287  1
  F  F61  1  0.68384926  0.87977941  0.27223032  1
  F  F62  1  0.64520790  0.86023429  0.54949214  1
  F  F63  1  0.61108193  0.93262651  0.74236706  1
  F  F64  1  0.02331882  0.96156628  0.10848976  1
  F  F65  1  0.03456973  0.08114249  0.35807973  1
  F  F66  1  0.98034516  0.02228687  0.60135831  1
  F  F67  1  0.01946044  0.95857551  0.85512089  1
  F  F68  1  0.46871885  0.98374956  0.10774872  1
  F  F69  1  0.53819191  0.04995570  0.34966514  1
  F  F70  1  0.46231246  0.99496154  0.60192444  1
  F  F71  1  0.50845804  0.01819881  0.85848518  1
  F  F72  1  0.29074845  0.22974059  0.10022623  1
  F  F73  1  0.22608877  0.30171924  0.34483978  1
  F  F74  1  0.28328770  0.21566251  0.60346252  1
  F  F75  1  0.18596712  0.27601895  0.85641869  1
  F  F76  1  0.97311790  0.45951222  0.10425680  1
  F  F77  1  0.01091288  0.55850189  0.34401059  1
  F  F78  1  0.97635052  0.48958066  0.59769157  1
  F  F79  1  0.01013979  0.50551431  0.85297336  1
  F  F80  1  0.78310928  0.24177853  0.10645704  1
  F  F81  1  0.69756699  0.25353984  0.36008619  1
  F  F82  1  0.80094177  0.28425467  0.60354603  1
  F  F83  1  0.72380609  0.22510669  0.85057000  1
  F  F84  1  0.51770027  0.46336933  0.10597459  1
  F  F85  1  0.49408976  0.56809653  0.35157494  1
  F  F86  1  0.47689580  0.53672020  0.60262036  1
  F  F87  1  0.53060203  0.47873892  0.84755431  1
  F  F88  1  0.28869677  0.77153097  0.09538742  1
  F  F89  1  0.20487088  0.74720839  0.34619949  1
  F  F90  1  0.28911846  0.77802052  0.59892611  1
  F  F91  1  0.21191417  0.71523065  0.84874681  1
  F  F92  1  0.80306608  0.79162114  0.16743629  1
  F  F93  1  0.70256590  0.77270851  0.41446394  1
  F  F94  1  0.77832407  0.75340071  0.66698441  1
  F  F95  1  0.70804240  0.73219311  0.92153331  1
  Ge  Ge96  1  0.02289414  0.98685101  0.00210701  1
  Ge  Ge97  1  0.00497541  0.03123096  0.25975560  1
  Ge  Ge98  1  0.99937420  0.02439623  0.49469257  1
  Ge  Ge99  1  0.98749688  0.97181704  0.75202235  1
  Ge  Ge100  1  0.48561657  0.98332307  0.99997754  1
  Ge  Ge101  1  0.51420810  0.00039470  0.24916619  1
  Ge  Ge102  1  0.50994506  0.00321064  0.50122391  1
  Ge  Ge103  1  0.48123314  0.01077811  0.75322038  1
  Ge  Ge104  1  0.26607031  0.24630036  0.99450702  1
  Ge  Ge105  1  0.26878890  0.27074518  0.24230804  1
  Ge  Ge106  1  0.26020198  0.25106286  0.50098891  1
  Ge  Ge107  1  0.23303360  0.25013404  0.75663079  1
  Ge  Ge108  1  0.99673860  0.46762302  0.99719993  1
  Ge  Ge109  1  0.00182359  0.49922714  0.24334397  1
  Ge  Ge110  1  0.00697272  0.50641746  0.49432051  1
  Ge  Ge111  1  0.98535082  0.50142965  0.74742604  1
  Ge  Ge112  1  0.74870343  0.21732609  0.00323966  1
  Ge  Ge113  1  0.73285582  0.26473609  0.25668099  1
  Ge  Ge114  1  0.76119459  0.26015912  0.50098523  1
  Ge  Ge115  1  0.75200498  0.22979724  0.74463618  1
  Ge  Ge116  1  0.52949905  0.50126392  0.00251266  1
  Ge  Ge117  1  0.50142972  0.53814600  0.24646934  1
  Ge  Ge118  1  0.49353709  0.53616097  0.49610550  1
  Ge  Ge119  1  0.50215903  0.47932370  0.74209633  1
  Ge  Ge120  1  0.25791763  0.72455311  0.99575958  1
  Ge  Ge121  1  0.22646263  0.77112903  0.24199173  1
  Ge  Ge122  1  0.25419147  0.76920175  0.49461616  1
  Ge  Ge123  1  0.24208803  0.72692505  0.74415715  1
  Ge  Ge124  1  0.76272464  0.74231346  0.02153779  1
  Ge  Ge125  1  0.78013300  0.76351990  0.27036406  1
  Ge  Ge126  1  0.72801708  0.74421042  0.51719927  1
  Ge  Ge127  1  0.73219045  0.74475604  0.76920005  1
  Rb  Rb128  1  0.01410262  0.24460321  0.12437862  1
  Rb  Rb129  1  0.00162440  0.29094424  0.37167200  1
  Rb  Rb130  1  0.01585277  0.25370596  0.63444648  1
  Rb  Rb131  1  0.98784141  0.20857546  0.88049516  1
  Rb  Rb132  1  0.50678787  0.24550738  0.12823363  1
  Rb  Rb133  1  0.48699802  0.28385177  0.37742322  1
  Rb  Rb134  1  0.50409792  0.25632879  0.61553330  1
  Rb  Rb135  1  0.49643565  0.24948685  0.87821826  1
  Rb  Rb136  1  0.27516939  0.51207503  0.11778040  1
  Rb  Rb137  1  0.24018441  0.52757025  0.35910349  1
  Rb  Rb138  1  0.25311925  0.50748976  0.62123169  1
  Rb  Rb139  1  0.24165303  0.49086574  0.87721222  1
  Rb  Rb140  1  0.00669373  0.73761435  0.11638650  1
  Rb  Rb141  1  0.99550092  0.77173884  0.39367647  1
  Rb  Rb142  1  0.99374311  0.75968698  0.61949559  1
  Rb  Rb143  1  0.99009031  0.72783557  0.88550347  1
  Rb  Rb144  1  0.75204279  0.48137054  0.13003261  1
  Rb  Rb145  1  0.74086801  0.52446039  0.37637451  1
  Rb  Rb146  1  0.75502538  0.50195623  0.62564009  1
  Rb  Rb147  1  0.75202975  0.46418257  0.87502061  1
  Rb  Rb148  1  0.50689003  0.76617920  0.13668775  1
  Rb  Rb149  1  0.48886650  0.78722071  0.36693222  1
  Rb  Rb150  1  0.49905989  0.76264736  0.64633964  1
  Rb  Rb151  1  0.49892602  0.71895568  0.87304017  1
  Rb  Rb152  1  0.25081211  0.00491755  0.13190197  1
  Rb  Rb153  1  0.25987775  0.03902244  0.36913090  1
  Rb  Rb154  1  0.24310336  0.99725050  0.62990935  1
  Rb  Rb155  1  0.24094288  0.96737950  0.86869637  1
  Rb  Rb156  1  0.78417639  0.00421223  0.13692024  1
  Rb  Rb157  1  0.74963628  0.01883234  0.39052887  1
  Rb  Rb158  1  0.75928695  0.99555012  0.63762577  1
  Rb  Rb159  1  0.73378067  0.98420822  0.89133544  1
