# generated using pymatgen
data_RbHgBr3
_symmetry_space_group_name_H-M   'P 1'
_cell_length_a   15.98542158
_cell_length_b   15.98542158
_cell_length_c   22.60680000
_cell_angle_alpha   90.00000000
_cell_angle_beta   90.00000000
_cell_angle_gamma   90.00000000
_symmetry_Int_Tables_number   1
_chemical_formula_structural   RbHgBr3
_chemical_formula_sum   'Rb32 Hg32 Br96'
_cell_volume   5776.79931969
_cell_formula_units_Z   32
loop_
 _symmetry_equiv_pos_site_id
 _symmetry_equiv_pos_as_xyz
  1  'x, y, z'
loop_
 _atom_site_type_symbol
 _atom_site_label
 _atom_site_symmetry_multiplicity
 _atom_site_fract_x
 _atom_site_fract_y
 _atom_site_fract_z
 _atom_site_occupancy
  Br  Br0  1  0.95707263  0.28063731  0.01333852  1
  Br  Br1  1  0.02002680  0.21124792  0.26673581  1
  Br  Br2  1  0.99009900  0.25585183  0.53665014  1
  Br  Br3  1  0.05907769  0.23237269  0.75181703  1
  Br  Br4  1  0.50993375  0.18201322  0.98160528  1
  Br  Br5  1  0.42783855  0.28711726  0.23888963  1
  Br  Br6  1  0.56340217  0.27985475  0.49576960  1
  Br  Br7  1  0.48606924  0.19548370  0.76536869  1
  Br  Br8  1  0.25650806  0.49324555  0.97833747  1
  Br  Br9  1  0.20671034  0.49722443  0.27617706  1
  Br  Br10  1  0.20684745  0.54381616  0.48604275  1
  Br  Br11  1  0.27692949  0.45187684  0.75919442  1
  Br  Br12  1  0.98917960  0.74365328  0.00911686  1
  Br  Br13  1  0.06846809  0.75960596  0.22459627  1
  Br  Br14  1  0.97268832  0.68950447  0.49056867  1
  Br  Br15  1  0.01883410  0.80089824  0.74151358  1
  Br  Br16  1  0.79310930  0.46317910  0.01107420  1
  Br  Br17  1  0.73826072  0.51604865  0.24374790  1
  Br  Br18  1  0.77975808  0.45762810  0.52221021  1
  Br  Br19  1  0.72598265  0.54269830  0.73393795  1
  Br  Br20  1  0.43902073  0.74797692  0.01440623  1
  Br  Br21  1  0.52195802  0.72373389  0.22579899  1
  Br  Br22  1  0.43394965  0.71398825  0.49659751  1
  Br  Br23  1  0.59030471  0.75172141  0.74660719  1
  Br  Br24  1  0.31369408  0.97722224  0.96935405  1
  Br  Br25  1  0.22052934  0.03304207  0.26934743  1
  Br  Br26  1  0.29847004  0.95181375  0.47632149  1
  Br  Br27  1  0.22231940  0.02472117  0.76660736  1
  Br  Br28  1  0.75799818  0.03000764  0.01351719  1
  Br  Br29  1  0.64547935  0.94843856  0.22284512  1
  Br  Br30  1  0.76428260  0.00714988  0.50872095  1
  Br  Br31  1  0.74075939  0.96317456  0.73641855  1
  Br  Br32  1  0.06311638  0.10501468  0.11502175  1
  Br  Br33  1  0.13768022  0.13454560  0.42451837  1
  Br  Br34  1  0.15053744  0.11732700  0.60253068  1
  Br  Br35  1  0.08668714  0.09686516  0.92279511  1
  Br  Br36  1  0.56828006  0.12074923  0.13031772  1
  Br  Br37  1  0.63226284  0.13247654  0.35262816  1
  Br  Br38  1  0.63407362  0.12206496  0.62856413  1
  Br  Br39  1  0.61293073  0.05517498  0.86139829  1
  Br  Br40  1  0.38994183  0.36171682  0.06741729  1
  Br  Br41  1  0.35413675  0.38914633  0.40659379  1
  Br  Br42  1  0.39338022  0.43100796  0.59402144  1
  Br  Br43  1  0.45804099  0.40780377  0.87303498  1
  Br  Br44  1  0.11980604  0.58416029  0.09815137  1
  Br  Br45  1  0.19353015  0.71580322  0.36593545  1
  Br  Br46  1  0.16954128  0.63696700  0.64954370  1
  Br  Br47  1  0.14404114  0.61130095  0.85407681  1
  Br  Br48  1  0.89703026  0.36842802  0.16600024  1
  Br  Br49  1  0.88913758  0.43198945  0.37460500  1
  Br  Br50  1  0.85251204  0.34827016  0.67534026  1
  Br  Br51  1  0.88765224  0.41135997  0.85236837  1
  Br  Br52  1  0.61537953  0.59582784  0.09436317  1
  Br  Br53  1  0.65792729  0.63839143  0.38529037  1
  Br  Br54  1  0.64257136  0.63382527  0.56940555  1
  Br  Br55  1  0.64679206  0.58252461  0.88485346  1
  Br  Br56  1  0.40933458  0.91171677  0.14301870  1
  Br  Br57  1  0.37547652  0.87811194  0.31691641  1
  Br  Br58  1  0.33440905  0.87567053  0.63858516  1
  Br  Br59  1  0.39755860  0.90089334  0.82568998  1
  Br  Br60  1  0.88955198  0.88420665  0.14706840  1
  Br  Br61  1  0.83488399  0.90331482  0.34407156  1
  Br  Br62  1  0.82207551  0.80911410  0.61269091  1
  Br  Br63  1  0.87408966  0.89074174  0.88407652  1
  Br  Br64  1  0.81480368  0.13120999  0.17093531  1
  Br  Br65  1  0.86197790  0.17171613  0.40232240  1
  Br  Br66  1  0.90653661  0.08162971  0.64833526  1
  Br  Br67  1  0.86569272  0.14673515  0.86085311  1
  Br  Br68  1  0.30345435  0.14336602  0.12515800  1
  Br  Br69  1  0.39153465  0.15121139  0.38921051  1
  Br  Br70  1  0.38739681  0.16077338  0.60351913  1
  Br  Br71  1  0.29603915  0.21974114  0.88007322  1
  Br  Br72  1  0.15949355  0.34342334  0.15182899  1
  Br  Br73  1  0.10091548  0.36977622  0.40389981  1
  Br  Br74  1  0.14580621  0.38378306  0.62595591  1
  Br  Br75  1  0.10497825  0.35664879  0.88801244  1
  Br  Br76  1  0.86886699  0.62340989  0.13315133  1
  Br  Br77  1  0.90241236  0.67621545  0.32650731  1
  Br  Br78  1  0.93421840  0.59666364  0.64791715  1
  Br  Br79  1  0.89418910  0.64393621  0.87119020  1
  Br  Br80  1  0.64304437  0.34620811  0.14346700  1
  Br  Br81  1  0.60363648  0.38446655  0.34930383  1
  Br  Br82  1  0.60212943  0.36930514  0.66946771  1
  Br  Br83  1  0.66707553  0.29856743  0.88651422  1
  Br  Br84  1  0.36386155  0.58064362  0.13553039  1
  Br  Br85  1  0.41932204  0.61496113  0.34226100  1
  Br  Br86  1  0.39884418  0.66766359  0.65826856  1
  Br  Br87  1  0.39433949  0.65077181  0.86301159  1
  Br  Br88  1  0.16127227  0.87676301  0.09074340  1
  Br  Br89  1  0.05811369  0.91086567  0.38862733  1
  Br  Br90  1  0.07872285  0.87422737  0.58663926  1
  Br  Br91  1  0.11962562  0.85997865  0.89155843  1
  Br  Br92  1  0.66414509  0.83418620  0.08246391  1
  Br  Br93  1  0.59106537  0.88306617  0.40363890  1
  Br  Br94  1  0.58003616  0.88890362  0.59011511  1
  Br  Br95  1  0.63429267  0.81428086  0.91483344  1
  Hg  Hg96  1  0.96532431  0.22736450  0.13861434  1
  Hg  Hg97  1  0.00438562  0.24279447  0.38620682  1
  Hg  Hg98  1  0.98106324  0.24210851  0.65192687  1
  Hg  Hg99  1  0.97979635  0.25173432  0.89128054  1
  Hg  Hg100  1  0.47913883  0.24911162  0.11312420  1
  Hg  Hg101  1  0.48020529  0.28172591  0.36140178  1
  Hg  Hg102  1  0.51942320  0.25768900  0.61138329  1
  Hg  Hg103  1  0.47649030  0.23266038  0.87688774  1
  Hg  Hg104  1  0.24575340  0.47550909  0.14500851  1
  Hg  Hg105  1  0.27648551  0.54602386  0.37884662  1
  Hg  Hg106  1  0.26095008  0.51480584  0.61455935  1
  Hg  Hg107  1  0.29006653  0.46543900  0.87062992  1
  Hg  Hg108  1  0.00757074  0.73038933  0.12231515  1
  Hg  Hg109  1  0.03139161  0.74245030  0.38486227  1
  Hg  Hg110  1  0.98484341  0.74785450  0.61894729  1
  Hg  Hg111  1  0.02555356  0.73599352  0.85739987  1
  Hg  Hg112  1  0.74171851  0.48419375  0.12346834  1
  Hg  Hg113  1  0.77920173  0.54245917  0.37048079  1
  Hg  Hg114  1  0.75313746  0.50308880  0.62800253  1
  Hg  Hg115  1  0.73369960  0.44868057  0.88113380  1
  Hg  Hg116  1  0.51427778  0.75755639  0.11546546  1
  Hg  Hg117  1  0.43670431  0.79204990  0.39972338  1
  Hg  Hg118  1  0.53904521  0.73822214  0.62543401  1
  Hg  Hg119  1  0.50091015  0.77879532  0.85079173  1
  Hg  Hg120  1  0.27283504  0.99236438  0.09515574  1
  Hg  Hg121  1  0.22499574  0.99221934  0.37908734  1
  Hg  Hg122  1  0.24213201  0.99578970  0.61932188  1
  Hg  Hg123  1  0.24227155  0.05639959  0.88035547  1
  Hg  Hg124  1  0.75135844  0.98109197  0.12981692  1
  Hg  Hg125  1  0.70252826  0.99053002  0.33700451  1
  Hg  Hg126  1  0.75975982  0.97700936  0.62229450  1
  Hg  Hg127  1  0.73796351  0.96847092  0.88497866  1
  Rb  Rb128  1  0.97781473  0.96418558  0.01361998  1
  Rb  Rb129  1  0.00016476  0.99623174  0.24963870  1
  Rb  Rb130  1  0.98149758  0.03429722  0.50524444  1
  Rb  Rb131  1  0.00296898  0.01488809  0.78165532  1
  Rb  Rb132  1  0.52801892  0.96829683  0.00490032  1
  Rb  Rb133  1  0.45264605  0.06268617  0.25108153  1
  Rb  Rb134  1  0.52984711  0.05557581  0.49129871  1
  Rb  Rb135  1  0.52122454  0.98474259  0.72063015  1
  Rb  Rb136  1  0.18881574  0.24762978  0.01417608  1
  Rb  Rb137  1  0.22699971  0.26525491  0.29479462  1
  Rb  Rb138  1  0.24709265  0.27911622  0.51080903  1
  Rb  Rb139  1  0.27184831  0.23755824  0.72543120  1
  Rb  Rb140  1  0.00365321  0.50239839  0.97834064  1
  Rb  Rb141  1  0.00159933  0.52766114  0.23764314  1
  Rb  Rb142  1  0.00197513  0.47584348  0.52269475  1
  Rb  Rb143  1  0.04587158  0.47137418  0.75185003  1
  Rb  Rb144  1  0.73741423  0.24249058  0.02691345  1
  Rb  Rb145  1  0.76638602  0.28216875  0.27572448  1
  Rb  Rb146  1  0.77068478  0.23799935  0.54051238  1
  Rb  Rb147  1  0.72146613  0.21066257  0.75377865  1
  Rb  Rb148  1  0.48024410  0.53475183  0.99054210  1
  Rb  Rb149  1  0.51996748  0.49396566  0.22591112  1
  Rb  Rb150  1  0.52277794  0.50265570  0.47370265  1
  Rb  Rb151  1  0.50571375  0.53287065  0.75166768  1
  Rb  Rb152  1  0.22394161  0.71987328  0.98594097  1
  Rb  Rb153  1  0.28537099  0.74452537  0.21871133  1
  Rb  Rb154  1  0.22427875  0.75239098  0.52035245  1
  Rb  Rb155  1  0.24702414  0.76841504  0.76702878  1
  Rb  Rb156  1  0.76884579  0.68536585  0.99886856  1
  Rb  Rb157  1  0.74274761  0.74752493  0.22485801  1
  Rb  Rb158  1  0.75750207  0.78575337  0.47266950  1
  Rb  Rb159  1  0.80175155  0.74896957  0.75743935  1
