# generated using pymatgen
data_RbHgI3
_symmetry_space_group_name_H-M   'P 1'
_cell_length_a   17.13173643
_cell_length_b   17.13173643
_cell_length_c   24.22793300
_cell_angle_alpha   90.00000000
_cell_angle_beta   90.00000000
_cell_angle_gamma   90.00000000
_symmetry_Int_Tables_number   1
_chemical_formula_structural   RbHgI3
_chemical_formula_sum   'Rb32 Hg32 I96'
_cell_volume   7110.81094424
_cell_formula_units_Z   32
loop_
 _symmetry_equiv_pos_site_id
 _symmetry_equiv_pos_as_xyz
  1  'x, y, z'
loop_
 _atom_site_type_symbol
 _atom_site_label
 _atom_site_symmetry_multiplicity
 _atom_site_fract_x
 _atom_site_fract_y
 _atom_site_fract_z
 _atom_site_occupancy
  Hg  Hg0  1  0.01154892  0.01619468  0.00877999  1
  Hg  Hg1  1  0.96053455  0.95579600  0.27263007  1
  Hg  Hg2  1  0.02124975  -0.00159074  0.52112127  1
  Hg  Hg3  1  0.02671291  0.03479835  0.75181827  1
  Hg  Hg4  1  0.53246960  0.01696311  0.01495057  1
  Hg  Hg5  1  0.45636977  0.00715540  0.30593787  1
  Hg  Hg6  1  0.49443793  0.98610521  0.49733779  1
  Hg  Hg7  1  0.47773516  0.97603474  0.73502433  1
  Hg  Hg8  1  0.25366866  0.26517339  0.00537791  1
  Hg  Hg9  1  0.21637677  0.24860055  0.23969249  1
  Hg  Hg10  1  0.26106172  0.22606391  0.50947525  1
  Hg  Hg11  1  0.26262691  0.29697450  0.76388130  1
  Hg  Hg12  1  0.92958849  0.49785914  0.03352348  1
  Hg  Hg13  1  0.98334616  0.44335735  0.27160178  1
  Hg  Hg14  1  0.03332008  0.47978604  0.48941105  1
  Hg  Hg15  1  0.04470815  0.53878179  0.75282334  1
  Hg  Hg16  1  0.68512053  0.32588364  0.99790299  1
  Hg  Hg17  1  0.72297170  0.24810728  0.25001728  1
  Hg  Hg18  1  0.75199725  0.22784555  0.51187528  1
  Hg  Hg19  1  0.77231691  0.22264499  0.75281838  1
  Hg  Hg20  1  0.51462102  0.52710441  0.96972472  1
  Hg  Hg21  1  0.48863833  0.53303624  0.19905211  1
  Hg  Hg22  1  0.48948365  0.47063482  0.48898696  1
  Hg  Hg23  1  0.49849208  0.46384371  0.73505791  1
  Hg  Hg24  1  0.25589670  0.74707324  0.00571907  1
  Hg  Hg25  1  0.27206462  0.70822522  0.24453290  1
  Hg  Hg26  1  0.27185367  0.73204770  0.48980369  1
  Hg  Hg27  1  0.23715359  0.83068408  0.75873227  1
  Hg  Hg28  1  0.77977305  0.74014277  0.99054706  1
  Hg  Hg29  1  0.70362176  0.80878470  0.26019400  1
  Hg  Hg30  1  0.75230242  0.75871571  0.49940292  1
  Hg  Hg31  1  0.76324312  0.73764307  0.75315407  1
  I  I32  1  0.12217633  0.18273020  0.96952092  1
  I  I33  1  0.09615516  0.15349252  0.27345917  1
  I  I34  1  0.06783858  0.14257899  0.48564604  1
  I  I35  1  0.13733414  0.18608626  0.77219741  1
  I  I36  1  0.65849454  0.14412511  0.00389562  1
  I  I37  1  0.56249734  0.13047130  0.28184152  1
  I  I38  1  0.59329255  0.11262922  0.47011280  1
  I  I39  1  0.62079085  0.17003566  0.77081168  1
  I  I40  1  0.30332081  0.41508819  0.02120284  1
  I  I41  1  0.35199125  0.32739352  0.26154033  1
  I  I42  1  0.41984442  0.31850661  0.52549920  1
  I  I43  1  0.40979668  0.31723666  0.70467338  1
  I  I44  1  0.14369520  0.65201369  0.96224367  1
  I  I45  1  0.13569083  0.63563648  0.26974061  1
  I  I46  1  0.10236307  0.61781998  0.45342905  1
  I  I47  1  0.16567387  0.66676241  0.76666871  1
  I  I48  1  0.81117223  0.37696896  0.06732158  1
  I  I49  1  0.88626058  0.32534396  0.22104580  1
  I  I50  1  0.88913965  0.42308234  0.52170861  1
  I  I51  1  0.86935375  0.35426842  0.74387129  1
  I  I52  1  0.63909480  0.58322816  0.02812469  1
  I  I53  1  0.61258779  0.65122120  0.23720045  1
  I  I54  1  0.63107410  0.64362053  0.48337107  1
  I  I55  1  0.61583030  0.66553186  0.75413582  1
  I  I56  1  0.36917346  0.85631483  0.02031089  1
  I  I57  1  0.38612956  0.81493955  0.22809131  1
  I  I58  1  0.43654048  0.83560712  0.52040000  1
  I  I59  1  0.39639940  0.82102382  0.70681918  1
  I  I60  1  0.89921348  0.86335105  0.97018337  1
  I  I61  1  0.88091947  0.82535045  0.21886006  1
  I  I62  1  0.91290087  0.89788267  0.56250932  1
  I  I63  1  0.84775357  0.87182179  0.77769159  1
  I  I64  1  0.89078976  0.11656310  0.98859557  1
  I  I65  1  0.85110318  0.07725174  0.25322568  1
  I  I66  1  0.83508903  0.10995047  0.46950190  1
  I  I67  1  0.86857727  0.11047066  0.81012235  1
  I  I68  1  0.37986957  0.15663958  0.00168089  1
  I  I69  1  0.31463794  0.05324596  0.26840251  1
  I  I70  1  0.35197494  0.06481655  0.46321546  1
  I  I71  1  0.35322735  0.07154404  0.75218395  1
  I  I72  1  0.04907492  0.39401779  0.00604263  1
  I  I73  1  0.12173270  0.40455411  0.21225596  1
  I  I74  1  0.15530119  0.38869029  0.53652310  1
  I  I75  1  0.18494866  0.42348734  0.71350738  1
  I  I76  1  0.87982602  0.59972392  0.95018865  1
  I  I77  1  0.88905316  0.57173279  0.29421517  1
  I  I78  1  0.88794499  0.67618832  0.47905192  1
  I  I79  1  0.86976959  0.61091487  0.77982803  1
  I  I80  1  0.53392412  0.36007655  0.03131979  1
  I  I81  1  0.58020223  0.40166375  0.21591103  1
  I  I82  1  0.67233030  0.36179832  0.52599090  1
  I  I83  1  0.64855542  0.41098917  0.72845610  1
  I  I84  1  0.39298756  0.63444083  0.94408380  1
  I  I85  1  0.37306277  0.56775353  0.28316740  1
  I  I86  1  0.35093566  0.56482269  0.46317449  1
  I  I87  1  0.39108118  0.58016858  0.74145033  1
  I  I88  1  0.14327905  0.92846463  0.99144868  1
  I  I89  1  0.11362272  0.89819685  0.26342501  1
  I  I90  1  0.15481363  0.89309393  0.50838288  1
  I  I91  1  0.13740090  0.89564233  0.68337717  1
  I  I92  1  0.65154145  0.89744379  0.02272555  1
  I  I93  1  0.62328344  0.91285060  0.19977051  1
  I  I94  1  0.68632573  0.90397157  0.50779048  1
  I  I95  1  0.61910149  0.91607071  0.76776384  1
  I  I96  1  0.01182691  0.01066581  0.12926233  1
  I  I97  1  0.94405096  0.95195171  0.39319313  1
  I  I98  1  0.98796882  0.08380350  0.65046750  1
  I  I99  1  0.06291179  0.97025380  0.84920366  1
  I  I100  1  0.46854586  0.01728310  0.12040482  1
  I  I101  1  0.53091429  0.89907999  0.36925679  1
  I  I102  1  0.53043950  0.01987482  0.62114860  1
  I  I103  1  0.49502184  0.00623596  0.90261036  1
  I  I104  1  0.22906082  0.19127328  0.12720082  1
  I  I105  1  0.24624028  0.25211570  0.39941262  1
  I  I106  1  0.23873392  0.18197399  0.61515000  1
  I  I107  1  0.31663007  0.29216066  0.87230582  1
  I  I108  1  0.96543217  0.57502480  0.13293613  1
  I  I109  1  0.03090986  0.38591278  0.37975487  1
  I  I110  1  0.00215043  0.53675985  0.64352915  1
  I  I111  1  0.04759141  0.48033422  0.85774116  1
  I  I112  1  0.69366937  0.19902789  0.14700970  1
  I  I113  1  0.72642004  0.28594231  0.35824240  1
  I  I114  1  0.77307826  0.18002107  0.63102386  1
  I  I115  1  0.75027923  0.32182051  0.89269065  1
  I  I116  1  0.40882078  0.58387544  0.10694148  1
  I  I117  1  0.54812125  0.45273060  0.38340434  1
  I  I118  1  0.53116859  0.51572401  0.59704221  1
  I  I119  1  0.51446109  0.44242894  0.86921473  1
  I  I120  1  0.19610931  0.74517040  0.12281529  1
  I  I121  1  0.28070376  0.78199090  0.38454807  1
  I  I122  1  0.25536296  0.69627068  0.59759069  1
  I  I123  1  0.28238238  0.84415913  0.86675174  1
  I  I124  1  0.77299489  0.72624046  0.10335293  1
  I  I125  1  0.76135184  0.76083450  0.35849977  1
  I  I126  1  0.77894746  0.73956815  0.62910190  1
  I  I127  1  0.69497741  0.74333920  0.89399138  1
  Rb  Rb128  1  0.01365912  0.23139067  0.11152337  1
  Rb  Rb129  1  0.93447119  0.20584069  0.35911744  1
  Rb  Rb130  1  0.03664286  0.29429969  0.64463206  1
  Rb  Rb131  1  0.97169708  0.27570211  0.87775851  1
  Rb  Rb132  1  0.46159241  0.22833073  0.14648518  1
  Rb  Rb133  1  0.46429550  0.24606687  0.38700263  1
  Rb  Rb134  1  0.56466501  0.23075988  0.62548764  1
  Rb  Rb135  1  0.52224821  0.22992328  0.89761160  1
  Rb  Rb136  1  0.17305642  0.53664897  0.10023398  1
  Rb  Rb137  1  0.22440007  0.46624590  0.36141154  1
  Rb  Rb138  1  0.31932516  0.48358565  0.60653152  1
  Rb  Rb139  1  0.26616301  0.50622927  0.86307786  1
  Rb  Rb140  1  0.99420079  0.78516722  0.09350408  1
  Rb  Rb141  1  0.99228714  0.75022865  0.35131587  1
  Rb  Rb142  1  0.04320359  0.73665615  0.58942891  1
  Rb  Rb143  1  0.00439529  0.75227769  0.85756650  1
  Rb  Rb144  1  0.75723621  0.52202043  0.17139249  1
  Rb  Rb145  1  0.76101630  0.50816826  0.41038018  1
  Rb  Rb146  1  0.78306304  0.52353963  0.64136921  1
  Rb  Rb147  1  0.71220490  0.52750339  0.86137409  1
  Rb  Rb148  1  0.53735357  0.75674557  0.10714043  1
  Rb  Rb149  1  0.49084554  0.68638856  0.37275713  1
  Rb  Rb150  1  0.56102569  0.73576664  0.61619021  1
  Rb  Rb151  1  0.48759697  0.78514230  0.85377479  1
  Rb  Rb152  1  0.24296295  0.96339856  0.13397295  1
  Rb  Rb153  1  0.17651707  0.01335470  0.38374898  1
  Rb  Rb154  1  0.30742349  0.97355080  0.60485244  1
  Rb  Rb155  1  0.26420617  0.06212960  0.89049773  1
  Rb  Rb156  1  0.79193373  -0.00305621  0.11317914  1
  Rb  Rb157  1  0.71979211  0.00073321  0.36618149  1
  Rb  Rb158  1  0.75596602  0.97100705  0.65216963  1
  Rb  Rb159  1  0.73455789  0.98591656  0.89470409  1
