# generated using pymatgen
data_RbHgF3
_symmetry_space_group_name_H-M   'P 1'
_cell_length_a   13.08462349
_cell_length_b   13.08462349
_cell_length_c   18.50445200
_cell_angle_alpha   90.00000000
_cell_angle_beta   90.00000000
_cell_angle_gamma   90.00000000
_symmetry_Int_Tables_number   1
_chemical_formula_structural   RbHgF3
_chemical_formula_sum   'Rb32 Hg32 F96'
_cell_volume   3168.09859556
_cell_formula_units_Z   32
loop_
 _symmetry_equiv_pos_site_id
 _symmetry_equiv_pos_as_xyz
  1  'x, y, z'
loop_
 _atom_site_type_symbol
 _atom_site_label
 _atom_site_symmetry_multiplicity
 _atom_site_fract_x
 _atom_site_fract_y
 _atom_site_fract_z
 _atom_site_occupancy
  F  F0  1  0.02664030  0.26843658  0.00184871  1
  F  F1  1  0.98246693  0.21957747  0.24911449  1
  F  F2  1  0.01774557  0.27951353  0.50138801  1
  F  F3  1  0.97329343  0.23064313  0.74865407  1
  F  F4  1  0.50731743  0.28485081  -0.00032428  1
  F  F5  1  0.49061579  0.21527021  0.25079462  1
  F  F6  1  0.50924240  0.28382857  0.49972282  1
  F  F7  1  0.49255464  0.21448225  0.75094174  1
  F  F8  1  0.25565285  0.46657276  0.00137890  1
  F  F9  1  0.24122109  0.53328156  0.24983388  1
  F  F10  1  0.25886093  0.46586115  0.50069609  1
  F  F11  1  0.24432623  0.53265236  0.74911605  1
  F  F12  1  0.00757455  0.78474385  -0.00036655  1
  F  F13  1  0.99050197  0.71520976  0.25082182  1
  F  F14  1  0.00942161  0.78393831  0.49971182  1
  F  F15  1  0.99258774  0.71442217  0.75091313  1
  F  F16  1  0.72534281  0.48236808  0.99453807  1
  F  F17  1  0.74591766  0.52931971  0.25546989  1
  F  F18  1  0.75409079  0.46955644  0.49503614  1
  F  F19  1  0.77463176  0.51659622  0.75602359  1
  F  F20  1  0.52677818  0.76844881  0.00179851  1
  F  F21  1  0.48222734  0.71935380  0.24911695  1
  F  F22  1  0.51773646  0.77942609  0.50140526  1
  F  F23  1  0.47318412  0.73057769  0.74868759  1
  F  F24  1  0.22564752  0.98231795  0.99459734  1
  F  F25  1  0.24587157  0.02932849  0.25551023  1
  F  F26  1  0.25414810  0.96972725  0.49507026  1
  F  F27  1  0.27438549  0.01698589  0.75605534  1
  F  F28  1  0.75581784  0.96639193  0.00132654  1
  F  F29  1  0.74126626  0.03331586  0.24980695  1
  F  F30  1  0.75889520  0.96583128  0.50071046  1
  F  F31  1  0.74405668  0.03272542  0.74914206  1
  F  F32  1  0.11473716  0.09343541  0.12148705  1
  F  F33  1  0.10642022  0.10600960  0.39114324  1
  F  F34  1  0.11234412  0.09146424  0.62170234  1
  F  F35  1  0.14397470  0.14766554  0.86882461  1
  F  F36  1  0.61588797  0.10044568  0.10777204  1
  F  F37  1  0.61247922  0.10339649  0.39268929  1
  F  F38  1  0.60919767  0.09704801  0.60766008  1
  F  F39  1  0.64490060  0.13877864  0.89128339  1
  F  F40  1  0.39077788  0.40215893  0.14278947  1
  F  F41  1  0.38743298  0.39572343  0.35786579  1
  F  F42  1  0.38391961  0.39858902  0.64275402  1
  F  F43  1  0.35475785  0.36045134  0.85942673  1
  F  F44  1  0.11579051  0.60048234  0.10787899  1
  F  F45  1  0.11253994  0.60352415  0.39269197  1
  F  F46  1  0.10912113  0.59696041  0.60770362  1
  F  F47  1  0.14502699  0.63875547  0.89106434  1
  F  F48  1  0.88758022  0.40744409  0.12879215  1
  F  F49  1  0.89354258  0.39320948  0.35943078  1
  F  F50  1  0.88507473  0.40557030  0.62906039  1
  F  F51  1  0.85588849  0.35182184  0.88189411  1
  F  F52  1  0.61476946  0.59355504  0.12151758  1
  F  F53  1  0.60638829  0.60593489  0.39113013  1
  F  F54  1  0.61230320  0.59146274  0.62168187  1
  F  F55  1  0.64416614  0.64765942  0.86854572  1
  F  F56  1  0.38762757  0.90743442  0.12891938  1
  F  F57  1  0.39351835  0.89315452  0.35950247  1
  F  F58  1  0.38501116  0.90551987  0.62924505  1
  F  F59  1  0.35602199  0.85188207  0.88189630  1
  F  F60  1  0.89065471  0.90202039  0.14282558  1
  F  F61  1  0.88730134  0.89563650  0.35786139  1
  F  F62  1  0.88390912  0.89865131  0.64296333  1
  F  F63  1  0.85487611  0.86058181  0.85935057  1
  F  F64  1  0.86711239  0.15113027  0.10534207  1
  F  F65  1  0.85973928  0.14551123  0.39403630  1
  F  F66  1  0.86544180  0.14645295  0.60315971  1
  F  F67  1  0.89724003  0.10361290  0.88659707  1
  F  F68  1  0.36193028  0.15488940  0.11006655  1
  F  F69  1  0.36296070  0.14617552  0.39366302  1
  F  F70  1  0.35913430  0.15216277  0.60948748  1
  F  F71  1  0.39151398  0.11567823  0.89844428  1
  F  F72  1  0.13460781  0.35282893  0.14715964  1
  F  F73  1  0.14025172  0.35385163  0.35643527  1
  F  F74  1  0.13280675  0.34799867  0.64517753  1
  F  F75  1  0.10251752  0.39578646  0.86366041  1
  F  F76  1  0.86180163  0.65502345  0.11002695  1
  F  F77  1  0.86302889  0.64612779  0.39392810  1
  F  F78  1  0.85911353  0.65217863  0.60948730  1
  F  F79  1  0.89142649  0.61568327  0.89854019  1
  F  F80  1  0.64082462  0.34689149  0.14107446  1
  F  F81  1  0.63688262  0.35308419  0.35672846  1
  F  F82  1  0.63787973  0.34414536  0.64066886  1
  F  F83  1  0.60822911  0.38381356  0.85224970  1
  F  F84  1  0.36705348  0.65131393  0.10527242  1
  F  F85  1  0.35969651  0.64549809  0.39410990  1
  F  F86  1  0.36537329  0.64648307  0.60318017  1
  F  F87  1  0.39730402  0.60359335  0.88681670  1
  F  F88  1  0.14075638  0.84690497  0.14111419  1
  F  F89  1  0.13673600  0.85326180  0.35668374  1
  F  F90  1  0.13788219  0.84411809  0.64065835  1
  F  F91  1  0.10828619  0.88379576  0.85234274  1
  F  F92  1  0.63454968  0.85281110  0.14720711  1
  F  F93  1  0.64011712  0.85382512  0.35641449  1
  F  F94  1  0.63286687  0.84792797  0.64514221  1
  F  F95  1  0.60264491  0.89576954  0.86368786  1
  Hg  Hg96  1  0.00367045  0.24910010  0.12578019  1
  Hg  Hg97  1  0.00001516  0.24967832  0.37524962  1
  Hg  Hg98  1  0.99630870  0.25010374  0.62474207  1
  Hg  Hg99  1  0.99991310  0.24970762  0.87521894  1
  Hg  Hg100  1  0.50242631  0.24934639  0.12533186  1
  Hg  Hg101  1  0.49994323  0.24962740  0.37522494  1
  Hg  Hg102  1  0.49741414  0.24980354  0.62518284  1
  Hg  Hg103  1  0.49991727  0.24968372  0.87530137  1
  Hg  Hg104  1  0.25312510  0.50059039  0.12559408  1
  Hg  Hg105  1  0.24995557  0.49967457  0.37524787  1
  Hg  Hg106  1  0.24688591  0.49874545  0.62486760  1
  Hg  Hg107  1  0.24992739  0.49965804  0.87524059  1
  Hg  Hg108  1  0.00236265  0.74930794  0.12532812  1
  Hg  Hg109  1  -0.00010721  0.74963792  0.37525148  1
  Hg  Hg110  1  0.99742998  0.74978121  0.62518512  1
  Hg  Hg111  1  -0.00013403  0.74965157  0.87527784  1
  Hg  Hg112  1  0.75257736  0.50222280  0.12502500  1
  Hg  Hg113  1  0.74998394  0.49964623  0.37529582  1
  Hg  Hg114  1  0.74725838  0.49679099  0.62553450  1
  Hg  Hg115  1  0.74988398  0.49969748  0.87528440  1
  Hg  Hg116  1  0.50360520  0.74909628  0.12577882  1
  Hg  Hg117  1  0.49995228  0.74959778  0.37521013  1
  Hg  Hg118  1  0.49632436  0.75015710  0.62475795  1
  Hg  Hg119  1  0.50000313  0.74967063  0.87520936  1
  Hg  Hg120  1  0.25257034  0.00213046  0.12506595  1
  Hg  Hg121  1  0.24995274  0.99962568  0.37526584  1
  Hg  Hg122  1  0.24728619  0.99684571  0.62557762  1
  Hg  Hg123  1  0.24994703  0.99969222  0.87529449  1
  Hg  Hg124  1  0.75310988  0.00050786  0.12556123  1
  Hg  Hg125  1  0.74994477  0.99968831  0.37524918  1
  Hg  Hg126  1  0.74695933  0.99881649  0.62491695  1
  Hg  Hg127  1  0.74990067  0.99968259  0.87523957  1
  Rb  Rb128  1  0.99453754  0.00220582  0.00471351  1
  Rb  Rb129  1  0.01533889  0.99873307  0.25344663  1
  Rb  Rb130  1  0.98377687  0.00395198  0.50001820  1
  Rb  Rb131  1  0.99050922  0.00618768  0.75492610  1
  Rb  Rb132  1  0.50942788  0.99287279  0.99562546  1
  Rb  Rb133  1  0.51628832  0.99522518  0.25046516  1
  Rb  Rb134  1  0.48454677  0.00027931  0.49710201  1
  Rb  Rb135  1  0.50545951  0.99722859  0.74566870  1
  Rb  Rb136  1  0.25366327  0.24743292  0.99113586  1
  Rb  Rb137  1  0.26750427  0.25243213  0.25056900  1
  Rb  Rb138  1  0.23801589  0.24906683  0.49732879  1
  Rb  Rb139  1  0.25910316  0.24331070  0.74811900  1
  Rb  Rb140  1  0.00949927  0.49288231  0.99562549  1
  Rb  Rb141  1  0.01623408  0.49520347  0.25037176  1
  Rb  Rb142  1  0.98448544  0.50034170  0.49703699  1
  Rb  Rb143  1  0.00541549  0.49710859  0.74560737  1
  Rb  Rb144  1  0.74079387  0.25613322  0.00250128  1
  Rb  Rb145  1  0.76211141  0.25013911  0.25316016  1
  Rb  Rb146  1  0.73227999  0.24656412  0.49986504  1
  Rb  Rb147  1  0.74619722  0.25187090  0.75964237  1
  Rb  Rb148  1  0.49440642  0.50222687  0.00490721  1
  Rb  Rb149  1  0.51551752  0.49862720  0.25346405  1
  Rb  Rb150  1  0.48368625  0.50392112  0.50004004  1
  Rb  Rb151  1  0.49030717  0.50622490  0.75491045  1
  Rb  Rb152  1  0.24060258  0.75606589  0.00239685  1
  Rb  Rb153  1  0.26190703  0.75008021  0.25324773  1
  Rb  Rb154  1  0.23231235  0.74668247  0.49985202  1
  Rb  Rb155  1  0.24624301  0.75186501  0.75962280  1
  Rb  Rb156  1  0.75353311  0.74730437  0.99106486  1
  Rb  Rb157  1  0.76748908  0.75253954  0.25057427  1
  Rb  Rb158  1  0.73783237  0.74912432  0.49742050  1
  Rb  Rb159  1  0.75926334  0.74320083  0.74803645  1
