# generated using pymatgen
data_RbHgCl3
_symmetry_space_group_name_H-M   'P 1'
_cell_length_a   15.17172694
_cell_length_b   15.17172694
_cell_length_c   21.45606100
_cell_angle_alpha   90.00000000
_cell_angle_beta   90.00000000
_cell_angle_gamma   90.00000000
_symmetry_Int_Tables_number   1
_chemical_formula_structural   RbHgCl3
_chemical_formula_sum   'Rb32 Hg32 Cl96'
_cell_volume   4938.78397682
_cell_formula_units_Z   32
loop_
 _symmetry_equiv_pos_site_id
 _symmetry_equiv_pos_as_xyz
  1  'x, y, z'
loop_
 _atom_site_type_symbol
 _atom_site_label
 _atom_site_symmetry_multiplicity
 _atom_site_fract_x
 _atom_site_fract_y
 _atom_site_fract_z
 _atom_site_occupancy
  Cl  Cl0  1  0.14719764  0.09864848  0.96420668  1
  Cl  Cl1  1  0.10981301  0.17869742  0.25942170  1
  Cl  Cl2  1  0.13658121  0.09946874  0.46078738  1
  Cl  Cl3  1  0.11366690  0.17433529  0.76624653  1
  Cl  Cl4  1  0.63577913  0.06917111  0.01072957  1
  Cl  Cl5  1  0.61687712  0.14955451  0.20423491  1
  Cl  Cl6  1  0.63717508  0.07191732  0.51556672  1
  Cl  Cl7  1  0.61880198  0.14208752  0.71166605  1
  Cl  Cl8  1  0.37691695  0.40884280  0.01741623  1
  Cl  Cl9  1  0.36576679  0.35763004  0.23896326  1
  Cl  Cl10  1  0.37945799  0.39895058  0.52251571  1
  Cl  Cl11  1  0.36404977  0.35556943  0.72711612  1
  Cl  Cl12  1  0.14935850  0.59672485  0.02955812  1
  Cl  Cl13  1  0.11924581  0.67596621  0.23492263  1
  Cl  Cl14  1  0.13456780  0.60121223  0.52782075  1
  Cl  Cl15  1  0.11729750  0.67236072  0.73334029  1
  Cl  Cl16  1  0.84991153  0.38873742  0.97203449  1
  Cl  Cl17  1  0.89170679  0.36335334  0.29313682  1
  Cl  Cl18  1  0.84383581  0.40502336  0.47812214  1
  Cl  Cl19  1  0.89831704  0.35452247  0.78239059  1
  Cl  Cl20  1  0.64134756  0.56994971  0.98546745  1
  Cl  Cl21  1  0.61156821  0.64940706  0.28693882  1
  Cl  Cl22  1  0.63742161  0.57234350  0.48992239  1
  Cl  Cl23  1  0.61771206  0.64215218  0.78480965  1
  Cl  Cl24  1  0.37534080  0.90377401  0.97281076  1
  Cl  Cl25  1  0.37306155  0.85278003  0.27444599  1
  Cl  Cl26  1  0.38044325  0.90228003  0.47416948  1
  Cl  Cl27  1  0.37164029  0.84874157  0.77004469  1
  Cl  Cl28  1  0.85831544  0.89217450  0.02711873  1
  Cl  Cl29  1  0.90258325  0.85216735  0.21804532  1
  Cl  Cl30  1  0.84884735  0.90174245  0.52717987  1
  Cl  Cl31  1  0.89734159  0.84952995  0.72282510  1
  Cl  Cl32  1  0.86451964  0.14190163  0.01941882  1
  Cl  Cl33  1  0.88746733  0.10721828  0.22889887  1
  Cl  Cl34  1  0.87153331  0.15711328  0.51860414  1
  Cl  Cl35  1  0.87948906  0.09963163  0.73730448  1
  Cl  Cl36  1  0.39700310  0.14869281  0.01061765  1
  Cl  Cl37  1  0.35153365  0.10873230  0.22367719  1
  Cl  Cl38  1  0.38882591  0.14360946  0.51571480  1
  Cl  Cl39  1  0.34846726  0.10494376  0.71805858  1
  Cl  Cl40  1  0.10340079  0.34627587  0.96623547  1
  Cl  Cl41  1  0.13776615  0.42819131  0.25495739  1
  Cl  Cl42  1  0.10429306  0.35666428  0.45358385  1
  Cl  Cl43  1  0.14007135  0.42637843  0.75792842  1
  Cl  Cl44  1  0.86774114  0.64089799  0.01832434  1
  Cl  Cl45  1  0.88182070  0.60168519  0.23010011  1
  Cl  Cl46  1  0.87067973  0.65047518  0.51520129  1
  Cl  Cl47  1  0.88335479  0.60010367  0.73282304  1
  Cl  Cl48  1  0.61088469  0.32295557  0.01058322  1
  Cl  Cl49  1  0.63824423  0.39224020  0.28735651  1
  Cl  Cl50  1  0.60818585  0.32049853  0.49950468  1
  Cl  Cl51  1  0.63322996  0.38714362  0.80057553  1
  Cl  Cl52  1  0.41385429  0.66270369  0.02477408  1
  Cl  Cl53  1  0.36172368  0.60921088  0.23841209  1
  Cl  Cl54  1  0.40243063  0.65038207  0.52652176  1
  Cl  Cl55  1  0.36279295  0.60517694  0.72272736  1
  Cl  Cl56  1  0.11086325  0.84235075  0.98093363  1
  Cl  Cl57  1  0.13680353  0.92635424  0.26721522  1
  Cl  Cl58  1  0.10188878  0.85020410  0.48175009  1
  Cl  Cl59  1  0.13553301  0.92173341  0.75637948  1
  Cl  Cl60  1  0.61846768  0.82526671  0.98516759  1
  Cl  Cl61  1  0.64437743  0.90203127  0.26024134  1
  Cl  Cl62  1  0.61404929  0.82434402  0.48590626  1
  Cl  Cl63  1  0.63789973  0.89355523  0.77172677  1
  Cl  Cl64  1  0.04294214  0.01900307  0.10740340  1
  Cl  Cl65  1  0.94551960  0.99647386  0.38192183  1
  Cl  Cl66  1  0.03247402  0.02550915  0.60708496  1
  Cl  Cl67  1  0.96054088  0.99343574  0.88476001  1
  Cl  Cl68  1  0.48543367  0.95404697  0.13242697  1
  Cl  Cl69  1  0.50411837  0.04171065  0.35587350  1
  Cl  Cl70  1  0.49417211  0.95006188  0.63429832  1
  Cl  Cl71  1  0.49391090  0.03885732  0.85583314  1
  Cl  Cl72  1  0.22531751  0.26308319  0.10584935  1
  Cl  Cl73  1  0.29505580  0.25856302  0.38263590  1
  Cl  Cl74  1  0.20375476  0.26054118  0.60324862  1
  Cl  Cl75  1  0.29797310  0.26682198  0.87903630  1
  Cl  Cl76  1  0.98724004  0.46353537  0.10880320  1
  Cl  Cl77  1  0.00154228  0.55872433  0.38567193  1
  Cl  Cl78  1  0.99057711  0.45859353  0.61069184  1
  Cl  Cl79  1  0.00608959  0.55104550  0.88929531  1
  Cl  Cl80  1  0.78558420  0.29352583  0.14590617  1
  Cl  Cl81  1  0.73965966  0.19360105  0.36199952  1
  Cl  Cl82  1  0.76631561  0.29504839  0.64592945  1
  Cl  Cl83  1  0.74275889  0.19290068  0.86543371  1
  Cl  Cl84  1  0.53368594  0.49059318  0.14482866  1
  Cl  Cl85  1  0.45495109  0.49128807  0.37240311  1
  Cl  Cl86  1  0.54706244  0.48081476  0.64767956  1
  Cl  Cl87  1  0.44742676  0.50214452  0.86770910  1
  Cl  Cl88  1  0.25760955  0.79920830  0.11505435  1
  Cl  Cl89  1  0.25122069  0.71570958  0.39101488  1
  Cl  Cl90  1  0.25184155  0.79886143  0.61283284  1
  Cl  Cl91  1  0.25720112  0.70966250  0.88778004  1
  Cl  Cl92  1  0.71474367  0.72762133  0.14090819  1
  Cl  Cl93  1  0.79753532  0.75715142  0.36377057  1
  Cl  Cl94  1  0.71685068  0.73209514  0.64079848  1
  Cl  Cl95  1  0.80278496  0.75051385  0.86759621  1
  Hg  Hg96  1  0.00908788  0.98286666  0.99632395  1
  Hg  Hg97  1  0.99886715  0.99725230  0.24515080  1
  Hg  Hg98  1  0.99876915  0.98792063  0.49413885  1
  Hg  Hg99  1  0.99867427  0.99674115  0.74158030  1
  Hg  Hg100  1  0.49676920  0.99708424  0.99984816  1
  Hg  Hg101  1  0.50939750  0.02173271  0.23931646  1
  Hg  Hg102  1  0.49661536  0.00282062  0.50183293  1
  Hg  Hg103  1  0.50444247  0.01740393  0.74096184  1
  Hg  Hg104  1  0.24307186  0.23979358  0.98959133  1
  Hg  Hg105  1  0.24809661  0.25230388  0.24956068  1
  Hg  Hg106  1  0.23405853  0.24064139  0.49065850  1
  Hg  Hg107  1  0.25023774  0.24970684  0.74807345  1
  Hg  Hg108  1  0.00228648  0.48644805  0.99564424  1
  Hg  Hg109  1  0.99381248  0.49498491  0.25793642  1
  Hg  Hg110  1  0.00153317  0.48451031  0.49347669  1
  Hg  Hg111  1  0.99778959  0.49338772  0.74930031  1
  Hg  Hg112  1  0.75144188  0.25149610  0.00767732  1
  Hg  Hg113  1  0.74779920  0.25993169  0.25594335  1
  Hg  Hg114  1  0.75037675  0.25489200  0.50464944  1
  Hg  Hg115  1  0.74132981  0.26340503  0.75903658  1
  Hg  Hg116  1  0.49881031  0.50741173  0.00215947  1
  Hg  Hg117  1  0.51080223  0.51093669  0.26063355  1
  Hg  Hg118  1  0.49777273  0.50196069  0.50620433  1
  Hg  Hg119  1  0.50850787  0.50504061  0.75912107  1
  Hg  Hg120  1  0.25275879  0.73293370  0.00549156  1
  Hg  Hg121  1  0.25479153  0.75507100  0.24688650  1
  Hg  Hg122  1  0.24522667  0.73606618  0.50598098  1
  Hg  Hg123  1  0.25756297  0.74285847  0.74799729  1
  Hg  Hg124  1  0.75441181  0.74941750  0.00383020  1
  Hg  Hg125  1  0.75157492  0.76186521  0.25196131  1
  Hg  Hg126  1  0.75161670  0.75276110  0.50555039  1
  Hg  Hg127  1  0.74759288  0.76009792  0.75590340  1
  Rb  Rb128  1  0.00212054  0.24415112  0.12498073  1
  Rb  Rb129  1  0.97307133  0.21659939  0.38351157  1
  Rb  Rb130  1  0.98500558  0.24508092  0.64184368  1
  Rb  Rb131  1  0.97047494  0.21824812  0.88700070  1
  Rb  Rb132  1  0.47553438  0.26452038  0.12514409  1
  Rb  Rb133  1  0.51110726  0.26059536  0.36835230  1
  Rb  Rb134  1  0.49012613  0.25751784  0.62346379  1
  Rb  Rb135  1  0.51348412  0.25196587  0.88291402  1
  Rb  Rb136  1  0.25659240  0.49255368  0.13450781  1
  Rb  Rb137  1  0.23736346  0.49729035  0.38411346  1
  Rb  Rb138  1  0.24248673  0.48688195  0.62803750  1
  Rb  Rb139  1  0.23226298  0.49109056  0.89206065  1
  Rb  Rb140  1  0.01563740  0.75182591  0.10673983  1
  Rb  Rb141  1  0.01404018  0.77359839  0.35439691  1
  Rb  Rb142  1  0.01255217  0.76094916  0.60830976  1
  Rb  Rb143  1  0.01798322  0.76954078  0.85390324  1
  Rb  Rb144  1  0.75693171  0.50389094  0.11588050  1
  Rb  Rb145  1  0.77164722  0.52903971  0.36437017  1
  Rb  Rb146  1  0.76533331  0.50851824  0.61410471  1
  Rb  Rb147  1  0.77794024  0.52285519  0.86421203  1
  Rb  Rb148  1  0.49755969  0.73998143  0.15643838  1
  Rb  Rb149  1  0.47198570  0.72621125  0.38812015  1
  Rb  Rb150  1  0.49989092  0.73539767  0.64951669  1
  Rb  Rb151  1  0.47923070  0.73426879  0.88272808  1
  Rb  Rb152  1  0.26266938  0.01538426  0.09808023  1
  Rb  Rb153  1  0.28232444  0.02484127  0.36150768  1
  Rb  Rb154  1  0.25126103  0.01405012  0.59611423  1
  Rb  Rb155  1  0.27408683  0.02113246  0.85533422  1
  Rb  Rb156  1  0.74683964  0.99063976  0.13752927  1
  Rb  Rb157  1  0.72971316  0.97553198  0.39101971  1
  Rb  Rb158  1  0.73699505  0.98071410  0.64424593  1
  Rb  Rb159  1  0.74356245  0.97439533  0.89249298  1
