# generated using pymatgen
data_RbInCl3
_symmetry_space_group_name_H-M   'P 1'
_cell_length_a   15.40472711
_cell_length_b   15.40472711
_cell_length_c   21.78557500
_cell_angle_alpha   90.00000000
_cell_angle_beta   90.00000000
_cell_angle_gamma   90.00000000
_symmetry_Int_Tables_number   1
_chemical_formula_structural   RbInCl3
_chemical_formula_sum   'Rb32 In32 Cl96'
_cell_volume   5169.83932262
_cell_formula_units_Z   32
loop_
 _symmetry_equiv_pos_site_id
 _symmetry_equiv_pos_as_xyz
  1  'x, y, z'
loop_
 _atom_site_type_symbol
 _atom_site_label
 _atom_site_symmetry_multiplicity
 _atom_site_fract_x
 _atom_site_fract_y
 _atom_site_fract_z
 _atom_site_occupancy
  Rb  Rb0  1  0.98598107  0.03483109  0.00008231  1
  Rb  Rb1  1  0.00883206  0.98352941  0.24444998  1
  Rb  Rb2  1  0.01334269  0.00327511  0.49353541  1
  Rb  Rb3  1  0.97995190  0.03182123  0.74648733  1
  Rb  Rb4  1  0.52868520  0.02657661  0.00924856  1
  Rb  Rb5  1  0.47428774  0.97263020  0.24892564  1
  Rb  Rb6  1  0.48770445  0.99165966  0.52592173  1
  Rb  Rb7  1  0.51970810  0.98774246  0.76018856  1
  Rb  Rb8  1  0.23786284  0.28036504  0.00391368  1
  Rb  Rb9  1  0.27475912  0.23182883  0.26341889  1
  Rb  Rb10  1  0.27172315  0.23065558  0.49495644  1
  Rb  Rb11  1  0.25692325  0.22939803  0.75336889  1
  Rb  Rb12  1  0.98224788  0.51096522  0.01292753  1
  Rb  Rb13  1  0.01363148  0.48933405  0.26118488  1
  Rb  Rb14  1  0.01802308  0.50097098  0.49203647  1
  Rb  Rb15  1  0.98840106  0.50746909  0.74730869  1
  Rb  Rb16  1  0.74897941  0.25140970  0.98517504  1
  Rb  Rb17  1  0.72642799  0.28653700  0.25509320  1
  Rb  Rb18  1  0.76931561  0.29048546  0.50240731  1
  Rb  Rb19  1  0.72130098  0.22206252  0.74168605  1
  Rb  Rb20  1  0.50443483  0.54163532  0.98899787  1
  Rb  Rb21  1  0.47568262  0.49134142  0.25155443  1
  Rb  Rb22  1  0.49192523  0.47158897  0.49004429  1
  Rb  Rb23  1  0.49945342  0.49197018  0.72913202  1
  Rb  Rb24  1  0.25774635  0.77565573  0.00924413  1
  Rb  Rb25  1  0.25428514  0.72114060  0.24470483  1
  Rb  Rb26  1  0.23293771  0.74205534  0.47325845  1
  Rb  Rb27  1  0.26511539  0.76223505  0.75236050  1
  Rb  Rb28  1  0.75444643  0.79323165  0.00699191  1
  Rb  Rb29  1  0.74196076  0.71072619  0.22986315  1
  Rb  Rb30  1  0.75984717  0.71595631  0.51835525  1
  Rb  Rb31  1  0.78421467  0.76652165  0.76487754  1
  In  In32  1  0.00408481  0.25341560  0.13372383  1
  In  In33  1  0.00344578  0.23307343  0.37277444  1
  In  In34  1  0.01145653  0.25293028  0.62178786  1
  In  In35  1  0.99055967  0.29058279  0.87163938  1
  In  In36  1  0.49157820  0.26188345  0.12458110  1
  In  In37  1  0.52082908  0.22067270  0.37659258  1
  In  In38  1  0.49293673  0.23884695  0.62661362  1
  In  In39  1  0.48432040  0.26119243  0.87882495  1
  In  In40  1  0.24720605  0.49906731  0.12370728  1
  In  In41  1  0.24926387  0.48799868  0.37799748  1
  In  In42  1  0.24061001  0.48746549  0.62530104  1
  In  In43  1  0.24990337  0.51244888  0.86604356  1
  In  In44  1  0.99751007  0.74961246  0.12533760  1
  In  In45  1  0.97704146  0.75428510  0.36794394  1
  In  In46  1  0.01524661  0.74606776  0.62631631  1
  In  In47  1  0.02006440  0.75595489  0.87931427  1
  In  In48  1  0.73995841  0.48799158  0.11580152  1
  In  In49  1  0.74548209  0.50620483  0.37229630  1
  In  In50  1  0.75370567  0.49635546  0.62765006  1
  In  In51  1  0.74076498  0.51190620  0.86057236  1
  In  In52  1  0.50576816  0.75256465  0.12350602  1
  In  In53  1  0.49618248  0.75247564  0.38035907  1
  In  In54  1  0.50469635  0.74132041  0.62651633  1
  In  In55  1  0.51760280  0.75657496  0.87091645  1
  In  In56  1  0.24879605  0.00293620  0.12034969  1
  In  In57  1  0.24846057  0.98881546  0.37465741  1
  In  In58  1  0.24176874  0.98208190  0.63287954  1
  In  In59  1  0.24354593  0.01645001  0.88422448  1
  In  In60  1  0.74355878  0.01420138  0.16439719  1
  In  In61  1  0.72736418  0.98649415  0.37743355  1
  In  In62  1  0.75960470  0.99719672  0.58594463  1
  In  In63  1  0.75377330  0.00914314  0.87969284  1
  Cl  Cl64  1  0.96905599  0.27259175  0.01936485  1
  Cl  Cl65  1  0.05287222  0.23567068  0.25711671  1
  Cl  Cl66  1  0.97530166  0.22697490  0.49132541  1
  Cl  Cl67  1  0.04119368  0.25596087  0.73686791  1
  Cl  Cl68  1  0.45345976  0.23559333  0.01335290  1
  Cl  Cl69  1  0.50852833  0.28318009  0.23906707  1
  Cl  Cl70  1  0.48722269  0.22447673  0.51143593  1
  Cl  Cl71  1  0.48934526  0.26718757  0.74095914  1
  Cl  Cl72  1  0.26780943  0.49482735  0.00982684  1
  Cl  Cl73  1  0.23239225  0.49833865  0.23999502  1
  Cl  Cl74  1  0.26421781  0.52411729  0.51339693  1
  Cl  Cl75  1  0.21011860  0.43909535  0.73166758  1
  Cl  Cl76  1  0.97186462  0.72549803  0.01187122  1
  Cl  Cl77  1  0.04477209  0.76726741  0.23549576  1
  Cl  Cl78  1  0.99604655  0.72625077  0.51253720  1
  Cl  Cl79  1  0.03906163  0.74545625  0.74095116  1
  Cl  Cl80  1  0.77397439  0.46953565  0.97023615  1
  Cl  Cl81  1  0.68478340  0.50049748  0.23896277  1
  Cl  Cl82  1  0.80702832  0.50721551  0.50082418  1
  Cl  Cl83  1  0.69637386  0.56539395  0.75629787  1
  Cl  Cl84  1  0.47799928  0.75982397  0.98493213  1
  Cl  Cl85  1  0.52427931  0.75783454  0.26694953  1
  Cl  Cl86  1  0.45042206  0.77558265  0.48885448  1
  Cl  Cl87  1  0.57098998  0.77620278  0.76300608  1
  Cl  Cl88  1  0.31595771  0.99457413  0.98642739  1
  Cl  Cl89  1  0.22549974  0.01193524  0.25918029  1
  Cl  Cl90  1  0.26474188  0.97883685  0.49171763  1
  Cl  Cl91  1  0.19958308  0.98705851  0.77411258  1
  Cl  Cl92  1  0.76077890  0.02483257  0.99827939  1
  Cl  Cl93  1  0.66641474  0.08383434  0.29427465  1
  Cl  Cl94  1  0.81784521  0.90982442  0.45683843  1
  Cl  Cl95  1  0.74734562  0.99269711  0.76231443  1
  Cl  Cl96  1  0.13985872  0.17105465  0.11560163  1
  Cl  Cl97  1  0.14210897  0.13112730  0.39471473  1
  Cl  Cl98  1  0.10696063  0.12507558  0.60721460  1
  Cl  Cl99  1  0.14752715  0.14508918  0.90194038  1
  Cl  Cl100  1  0.63827992  0.18571592  0.11370265  1
  Cl  Cl101  1  0.68766029  0.09452904  0.45812014  1
  Cl  Cl102  1  0.59350835  0.10795328  0.63995387  1
  Cl  Cl103  1  0.63864340  0.12701466  0.87620758  1
  Cl  Cl104  1  0.33353391  0.34930183  0.13751019  1
  Cl  Cl105  1  0.37686824  0.34662208  0.37957444  1
  Cl  Cl106  1  0.38197553  0.38260954  0.61387446  1
  Cl  Cl107  1  0.32459896  0.33559105  0.87386787  1
  Cl  Cl108  1  0.15013080  0.64105360  0.11254563  1
  Cl  Cl109  1  0.11411285  0.62862397  0.37329706  1
  Cl  Cl110  1  0.09760927  0.57849847  0.62430393  1
  Cl  Cl111  1  0.18393033  0.68800125  0.88380934  1
  Cl  Cl112  1  0.89257070  0.35726279  0.16813557  1
  Cl  Cl113  1  0.88057471  0.33864721  0.35782076  1
  Cl  Cl114  1  0.92434612  0.38633121  0.61625708  1
  Cl  Cl115  1  0.82525212  0.38118499  0.81629731  1
  Cl  Cl116  1  0.66069692  0.64574541  0.09229936  1
  Cl  Cl117  1  0.62911724  0.66545041  0.40212619  1
  Cl  Cl118  1  0.60661805  0.58766074  0.59044455  1
  Cl  Cl119  1  0.65330073  0.66361585  0.90401083  1
  Cl  Cl120  1  0.34699504  0.85626907  0.14455113  1
  Cl  Cl121  1  0.34876412  0.85072171  0.35067329  1
  Cl  Cl122  1  0.39423382  0.89790645  0.65424036  1
  Cl  Cl123  1  0.39306059  0.86151260  0.85124857  1
  Cl  Cl124  1  0.86503159  0.84714346  0.13695764  1
  Cl  Cl125  1  0.80140357  0.90301697  0.29528437  1
  Cl  Cl126  1  0.94142431  0.89433019  0.62713063  1
  Cl  Cl127  1  0.86241403  0.88723005  0.88485243  1
  Cl  Cl128  1  0.91476274  0.11750879  0.14135331  1
  Cl  Cl129  1  0.91391420  0.09817701  0.35913187  1
  Cl  Cl130  1  0.87550116  0.16066805  0.63682606  1
  Cl  Cl131  1  0.87399151  0.12314586  0.86966387  1
  Cl  Cl132  1  0.40663458  0.12366030  0.15016326  1
  Cl  Cl133  1  0.37574346  0.08816035  0.37035766  1
  Cl  Cl134  1  0.35652811  0.14620953  0.63112451  1
  Cl  Cl135  1  0.37510106  0.09697601  0.84663600  1
  Cl  Cl136  1  0.10557453  0.40638578  0.11815406  1
  Cl  Cl137  1  0.10903746  0.35784366  0.38912225  1
  Cl  Cl138  1  0.14786722  0.35235420  0.58404316  1
  Cl  Cl139  1  0.07438504  0.45025007  0.88432324  1
  Cl  Cl140  1  0.91616123  0.61099265  0.14778550  1
  Cl  Cl141  1  0.87758959  0.62071983  0.32668891  1
  Cl  Cl142  1  0.87618307  0.65971750  0.64623441  1
  Cl  Cl143  1  0.87217818  0.61102674  0.85876447  1
  Cl  Cl144  1  0.55672462  0.40808368  0.10132434  1
  Cl  Cl145  1  0.62761617  0.35945198  0.39875351  1
  Cl  Cl146  1  0.62185723  0.34243290  0.61935335  1
  Cl  Cl147  1  0.59887923  0.42793585  0.87037965  1
  Cl  Cl148  1  0.37920688  0.59440184  0.13534455  1
  Cl  Cl149  1  0.39670839  0.62120416  0.36759242  1
  Cl  Cl150  1  0.34008137  0.60625809  0.66000034  1
  Cl  Cl151  1  0.43079210  0.62300083  0.84811427  1
  Cl  Cl152  1  0.09332406  0.87980027  0.09818189  1
  Cl  Cl153  1  0.11801676  0.89355806  0.38057545  1
  Cl  Cl154  1  0.16817211  0.80272351  0.61080577  1
  Cl  Cl155  1  0.12729167  0.91230484  0.91937649  1
  Cl  Cl156  1  0.60347026  0.91067079  0.12637304  1
  Cl  Cl157  1  0.58022353  0.90936029  0.39000114  1
  Cl  Cl158  1  0.64427144  0.85989024  0.59623917  1
  Cl  Cl159  1  0.62182701  0.89809952  0.89942128  1
