# generated using pymatgen
data_RbInBr3
_symmetry_space_group_name_H-M   'P 1'
_cell_length_a   16.21123330
_cell_length_b   16.21123330
_cell_length_c   22.92614600
_cell_angle_alpha   90.00000000
_cell_angle_beta   90.00000000
_cell_angle_gamma   90.00000000
_symmetry_Int_Tables_number   1
_chemical_formula_structural   RbInBr3
_chemical_formula_sum   'Rb32 In32 Br96'
_cell_volume   6025.08482684
_cell_formula_units_Z   32
loop_
 _symmetry_equiv_pos_site_id
 _symmetry_equiv_pos_as_xyz
  1  'x, y, z'
loop_
 _atom_site_type_symbol
 _atom_site_label
 _atom_site_symmetry_multiplicity
 _atom_site_fract_x
 _atom_site_fract_y
 _atom_site_fract_z
 _atom_site_occupancy
  Br  Br0  1  0.96872152  0.24267924  0.98680885  1
  Br  Br1  1  0.04793978  0.26365284  0.25767813  1
  Br  Br2  1  0.96241302  0.25012973  0.49070488  1
  Br  Br3  1  0.05488033  0.27412596  0.75803215  1
  Br  Br4  1  0.48507397  0.29456146  0.99149318  1
  Br  Br5  1  0.49492925  0.20083204  0.26178930  1
  Br  Br6  1  0.51243281  0.29983381  0.49066601  1
  Br  Br7  1  0.50579429  0.23185535  0.76248772  1
  Br  Br8  1  0.27484299  0.49841804  0.99232222  1
  Br  Br9  1  0.20219133  0.48883188  0.26898969  1
  Br  Br10  1  0.29402088  0.50029665  0.48865343  1
  Br  Br11  1  0.21465527  0.50789903  0.76065943  1
  Br  Br12  1  0.98686245  0.76998136  0.99079693  1
  Br  Br13  1  0.01836642  0.69160350  0.26280894  1
  Br  Br14  1  0.00238430  0.80670974  0.48251018  1
  Br  Br15  1  0.02294247  0.72546114  0.75625304  1
  Br  Br16  1  0.73767023  0.45255132  0.01265678  1
  Br  Br17  1  0.73086904  0.54468320  0.23850626  1
  Br  Br18  1  0.74451980  0.46296577  0.51172114  1
  Br  Br19  1  0.76107576  0.53505916  0.74125989  1
  Br  Br20  1  0.46519517  0.73949807  0.00646499  1
  Br  Br21  1  0.54088720  0.75502604  0.23387700  1
  Br  Br22  1  0.46558073  0.75995759  0.50781047  1
  Br  Br23  1  0.53050837  0.77044522  0.73595257  1
  Br  Br24  1  0.23550851  0.95895645  0.00583518  1
  Br  Br25  1  0.25091888  0.04501688  0.23670245  1
  Br  Br26  1  0.26235002  0.96310256  0.50573998  1
  Br  Br27  1  0.25524927  0.02518493  0.73852627  1
  Br  Br28  1  0.79360294  0.00134893  0.01361880  1
  Br  Br29  1  0.69781712  0.97922522  0.24383375  1
  Br  Br30  1  0.79997826  0.99157192  0.51394284  1
  Br  Br31  1  0.70004597  0.99715122  0.74323002  1
  Br  Br32  1  0.14744868  0.13469561  0.09632040  1
  Br  Br33  1  0.11169974  0.13385092  0.38889976  1
  Br  Br34  1  0.17540808  0.14175324  0.60129817  1
  Br  Br35  1  0.14660106  0.16862579  0.89286062  1
  Br  Br36  1  0.63873291  0.11053652  0.11415174  1
  Br  Br37  1  0.60607723  0.12201787  0.39901331  1
  Br  Br38  1  0.65960818  0.12875798  0.60859853  1
  Br  Br39  1  0.65543907  0.17911773  0.89291155  1
  Br  Br40  1  0.34022624  0.33452942  0.14263002  1
  Br  Br41  1  0.40249573  0.38267848  0.35259481  1
  Br  Br42  1  0.36379396  0.35336247  0.63819032  1
  Br  Br43  1  0.33475092  0.35157802  0.85898775  1
  Br  Br44  1  0.14245774  0.65425916  0.11078463  1
  Br  Br45  1  0.10025890  0.60724423  0.41754933  1
  Br  Br46  1  0.16455329  0.67164596  0.61428719  1
  Br  Br47  1  0.14795161  0.65216598  0.89255124  1
  Br  Br48  1  0.81870785  0.34706659  0.15739316  1
  Br  Br49  1  0.91175531  0.39201109  0.36224551  1
  Br  Br50  1  0.84251421  0.35090925  0.64711614  1
  Br  Br51  1  0.87697378  0.34537952  0.85179024  1
  Br  Br52  1  0.65417310  0.64903685  0.08826984  1
  Br  Br53  1  0.59902365  0.59272433  0.38832735  1
  Br  Br54  1  0.64990193  0.66041132  0.60178665  1
  Br  Br55  1  0.65798433  0.64249821  0.89452997  1
  Br  Br56  1  0.33686811  0.86301678  0.14030620  1
  Br  Br57  1  0.40048125  0.90598212  0.35355488  1
  Br  Br58  1  0.35277136  0.85722667  0.64588908  1
  Br  Br59  1  0.35678405  0.86177094  0.86195707  1
  Br  Br60  1  0.81793613  0.84513579  0.13533797  1
  Br  Br61  1  0.91267888  0.88871914  0.32984142  1
  Br  Br62  1  0.83774067  0.85621063  0.64812026  1
  Br  Br63  1  0.86644282  0.84344224  0.85555347  1
  Br  Br64  1  0.87555730  0.09569778  0.15793849  1
  Br  Br65  1  0.87346339  0.14855992  0.34985245  1
  Br  Br66  1  0.88901697  0.09307990  0.65566660  1
  Br  Br67  1  0.92092467  0.10515812  0.84806928  1
  Br  Br68  1  0.38399735  0.08881206  0.09973884  1
  Br  Br69  1  0.36789487  0.15693990  0.40064646  1
  Br  Br70  1  0.40560218  0.08636195  0.61287625  1
  Br  Br71  1  0.40616211  0.12584862  0.88895272  1
  Br  Br72  1  0.09335346  0.40459384  0.10718111  1
  Br  Br73  1  0.14984886  0.36522277  0.40513635  1
  Br  Br74  1  0.09330706  0.41161162  0.61147729  1
  Br  Br75  1  0.10175794  0.41357679  0.89535770  1
  Br  Br76  1  0.87586068  0.58067609  0.11325208  1
  Br  Br77  1  0.87223637  0.66090039  0.39078360  1
  Br  Br78  1  0.87992405  0.59701343  0.60712539  1
  Br  Br79  1  0.91306581  0.60613209  0.87889445  1
  Br  Br80  1  0.58638793  0.42622658  0.13643940  1
  Br  Br81  1  0.64184434  0.34326578  0.35110470  1
  Br  Br82  1  0.60693696  0.42431765  0.64236756  1
  Br  Br83  1  0.57571431  0.40619116  0.86195994  1
  Br  Br84  1  0.40712850  0.62333071  0.13980016  1
  Br  Br85  1  0.33396599  0.63184014  0.35702532  1
  Br  Br86  1  0.41429485  0.62427276  0.63742954  1
  Br  Br87  1  0.37485632  0.59562804  0.86201920  1
  Br  Br88  1  0.10129842  0.91291466  0.14244369  1
  Br  Br89  1  0.14944543  0.83387059  0.35648058  1
  Br  Br90  1  0.11315316  0.91625645  0.63016911  1
  Br  Br91  1  0.10002680  0.88423341  0.86843220  1
  Br  Br92  1  0.58311303  0.88706952  0.09851858  1
  Br  Br93  1  0.65595920  0.84325871  0.39740455  1
  Br  Br94  1  0.60116760  0.89858514  0.60035200  1
  Br  Br95  1  0.60862680  0.89387071  0.89337601  1
  In  In96  1  0.99860578  0.25082820  0.12196692  1
  In  In97  1  0.99830456  0.25260901  0.37255250  1
  In  In98  1  0.01038731  0.24972929  0.62740980  1
  In  In99  1  0.00464328  0.24464024  0.86965444  1
  In  In100  1  0.49285398  0.24644272  0.12689281  1
  In  In101  1  0.50258405  0.25270428  0.37566781  1
  In  In102  1  0.51174652  0.24996582  0.62406076  1
  In  In103  1  0.51033110  0.25520462  0.87941625  1
  In  In104  1  0.24824012  0.49590332  0.12990837  1
  In  In105  1  0.22509934  0.51255187  0.38256357  1
  In  In106  1  0.24684363  0.50781945  0.62271323  1
  In  In107  1  0.24609981  0.49194968  0.87565497  1
  In  In108  1  0.99357273  0.75434997  0.12986202  1
  In  In109  1  0.00109177  0.76147124  0.36881159  1
  In  In110  1  0.00878670  0.75348299  0.61829243  1
  In  In111  1  0.00331772  0.74574448  0.87346796  1
  In  In112  1  0.74025050  0.48668075  0.12794538  1
  In  In113  1  0.74871427  0.49943941  0.37324509  1
  In  In114  1  0.75749794  0.48908445  0.62888120  1
  In  In115  1  0.75346870  0.49229922  0.87799283  1
  In  In116  1  0.52243600  0.73625524  0.11838411  1
  In  In117  1  0.50243128  0.75048841  0.37414654  1
  In  In118  1  0.51472599  0.75456073  0.62023023  1
  In  In119  1  0.50527808  0.74590364  0.87119266  1
  In  In120  1  0.24358328  0.00090407  0.12164393  1
  In  In121  1  0.25517888  0.00348806  0.37126186  1
  In  In122  1  0.26247931  0.99804744  0.62144655  1
  In  In123  1  0.24822413  0.00433055  0.87211852  1
  In  In124  1  0.75298750  0.99387954  0.13074714  1
  In  In125  1  0.75423011  0.99435217  0.37896911  1
  In  In126  1  0.75662756  0.99853980  0.63011496  1
  In  In127  1  0.75079057  0.00541433  0.87752307  1
  Rb  Rb128  1  0.01951472  0.01598434  0.99190229  1
  Rb  Rb129  1  0.03090320  0.03865338  0.25733382  1
  Rb  Rb130  1  0.02039451  0.03044236  0.51536267  1
  Rb  Rb131  1  0.98716046  0.95542301  0.74936530  1
  Rb  Rb132  1  0.45885159  0.96493756  0.98749538  1
  Rb  Rb133  1  0.47978094  0.98417581  0.22334123  1
  Rb  Rb134  1  0.48602624  0.98645399  0.48444833  1
  Rb  Rb135  1  0.47857111  0.98503664  0.74858667  1
  Rb  Rb136  1  0.26144846  0.27177984  0.00401746  1
  Rb  Rb137  1  0.26445449  0.26024413  0.27431074  1
  Rb  Rb138  1  0.28224736  0.27759223  0.50905925  1
  Rb  Rb139  1  0.26249801  0.23666688  0.74184564  1
  Rb  Rb140  1  0.02494103  0.54240400  0.00331748  1
  Rb  Rb141  1  0.98272335  0.47815675  0.23024088  1
  Rb  Rb142  1  0.97219901  0.47305869  0.49741096  1
  Rb  Rb143  1  0.99060819  0.48759501  0.75083593  1
  Rb  Rb144  1  0.75905923  0.23597264  0.02039757  1
  Rb  Rb145  1  0.71713157  0.20153678  0.24964393  1
  Rb  Rb146  1  0.74082911  0.24140833  0.48576731  1
  Rb  Rb147  1  0.75318787  0.21519998  0.75196798  1
  Rb  Rb148  1  0.51575222  0.51749862  0.99267955  1
  Rb  Rb149  1  0.50680507  0.52014833  0.26226276  1
  Rb  Rb150  1  0.51550060  0.51892077  0.51633704  1
  Rb  Rb151  1  0.45515160  0.47460282  0.74773281  1
  Rb  Rb152  1  0.25362541  0.74728971  0.00326278  1
  Rb  Rb153  1  0.23731635  0.73027836  0.23643855  1
  Rb  Rb154  1  0.24713942  0.74706445  0.48777314  1
  Rb  Rb155  1  0.24949893  0.73370939  0.75539000  1
  Rb  Rb156  1  0.75760213  0.78240485  0.98788928  1
  Rb  Rb157  1  0.75401950  0.75999054  0.27049557  1
  Rb  Rb158  1  0.77897384  0.77020800  0.50994480  1
  Rb  Rb159  1  0.73845514  0.74403448  0.75868470  1
