# generated using pymatgen
data_RbMgI3
_symmetry_space_group_name_H-M   'P 1'
_cell_length_a   16.61643519
_cell_length_b   16.61643519
_cell_length_c   23.49918800
_cell_angle_alpha   90.00000000
_cell_angle_beta   90.00000000
_cell_angle_gamma   90.00000000
_symmetry_Int_Tables_number   1
_chemical_formula_structural   RbMgI3
_chemical_formula_sum   'Rb32 Mg32 I96'
_cell_volume   6488.26488274
_cell_formula_units_Z   32
loop_
 _symmetry_equiv_pos_site_id
 _symmetry_equiv_pos_as_xyz
  1  'x, y, z'
loop_
 _atom_site_type_symbol
 _atom_site_label
 _atom_site_symmetry_multiplicity
 _atom_site_fract_x
 _atom_site_fract_y
 _atom_site_fract_z
 _atom_site_occupancy
  Rb  Rb0  1  0.98268338  0.01770937  0.99223704  1
  Rb  Rb1  1  0.99222284  0.00713073  0.23401781  1
  Rb  Rb2  1  0.00052779  0.02733315  0.49903745  1
  Rb  Rb3  1  0.99541284  0.98453156  0.75000774  1
  Rb  Rb4  1  0.50763954  0.99374509  0.01652471  1
  Rb  Rb5  1  0.51599598  0.98197643  0.25845168  1
  Rb  Rb6  1  0.50207607  0.01498878  0.49999868  1
  Rb  Rb7  1  0.49855153  0.97432978  0.75117171  1
  Rb  Rb8  1  0.26615432  0.23659698  0.00728005  1
  Rb  Rb9  1  0.25948827  0.23917833  0.26312375  1
  Rb  Rb10  1  0.24187154  0.27868891  0.50250314  1
  Rb  Rb11  1  0.26309578  0.23348937  0.75224666  1
  Rb  Rb12  1  0.00728844  0.49294413  0.01623297  1
  Rb  Rb13  1  0.01498631  0.48442819  0.25802368  1
  Rb  Rb14  1  0.00297656  0.51633576  0.50058161  1
  Rb  Rb15  1  0.99973107  0.47429509  0.75107852  1
  Rb  Rb16  1  0.73873546  0.26152371  0.98647954  1
  Rb  Rb17  1  0.73333132  0.26323002  0.24288988  1
  Rb  Rb18  1  0.73586466  0.26702379  0.49794259  1
  Rb  Rb19  1  0.75533515  0.22277700  0.74733383  1
  Rb  Rb20  1  0.48377402  0.51736494  0.99172843  1
  Rb  Rb21  1  0.49214251  0.50775097  0.23403623  1
  Rb  Rb22  1  0.49819232  0.52669673  0.49887238  1
  Rb  Rb23  1  0.49392767  0.48467611  0.74938544  1
  Rb  Rb24  1  0.23912903  0.76128989  0.98717343  1
  Rb  Rb25  1  0.23292323  0.76430761  0.24215877  1
  Rb  Rb26  1  0.23374108  0.76781375  0.49734563  1
  Rb  Rb27  1  0.25618177  0.72260234  0.74763122  1
  Rb  Rb28  1  0.76471467  0.73738603  0.00751483  1
  Rb  Rb29  1  0.75968676  0.73869394  0.26398982  1
  Rb  Rb30  1  0.74362190  0.77766701  0.50285208  1
  Rb  Rb31  1  0.76142953  0.73317262  0.75228554  1
  Mg  Mg32  1  0.99946415  0.25057223  0.12495405  1
  Mg  Mg33  1  0.99930939  0.25027186  0.37444350  1
  Mg  Mg34  1  0.99878330  0.25031732  0.62508397  1
  Mg  Mg35  1  0.99907680  0.25070826  0.87537163  1
  Mg  Mg36  1  0.49964730  0.25075655  0.12534944  1
  Mg  Mg37  1  0.50013285  0.25277582  0.37485513  1
  Mg  Mg38  1  0.49910005  0.25001380  0.62473279  1
  Mg  Mg39  1  0.49830517  0.24749480  0.87527637  1
  Mg  Mg40  1  0.24948734  0.50024096  0.12507313  1
  Mg  Mg41  1  0.25336109  0.50202866  0.37341857  1
  Mg  Mg42  1  0.24896875  0.50020631  0.62494411  1
  Mg  Mg43  1  0.24496522  0.49837973  0.87656466  1
  Mg  Mg44  1  0.99899237  0.75045909  0.12491763  1
  Mg  Mg45  1  0.00030308  0.75293483  0.37457595  1
  Mg  Mg46  1  0.99898059  0.74992779  0.62545338  1
  Mg  Mg47  1  0.99820522  0.74747994  0.87548283  1
  Mg  Mg48  1  0.74954156  0.50042631  0.12490225  1
  Mg  Mg49  1  0.75000665  0.50011700  0.37596092  1
  Mg  Mg50  1  0.74846779  0.50015031  0.62503590  1
  Mg  Mg51  1  0.74823284  0.50025101  0.87418538  1
  Mg  Mg52  1  0.49937949  0.75035718  0.12515988  1
  Mg  Mg53  1  0.49923875  0.74978199  0.37482718  1
  Mg  Mg54  1  0.49876566  0.75078791  0.62454748  1
  Mg  Mg55  1  0.49902768  0.75078157  0.87548453  1
  Mg  Mg56  1  0.24957562  0.00070714  0.12488520  1
  Mg  Mg57  1  0.25051388  0.00064057  0.37545994  1
  Mg  Mg58  1  0.24882691  0.00040093  0.62511832  1
  Mg  Mg59  1  0.24767828  0.00012495  0.87458695  1
  Mg  Mg60  1  0.74925758  0.00073325  0.12543724  1
  Mg  Mg61  1  0.75397418  0.00222568  0.37392757  1
  Mg  Mg62  1  0.74926229  0.00019045  0.62503526  1
  Mg  Mg63  1  0.74492579  0.99832366  0.87625585  1
  I  I64  1  0.96098495  0.25233029  0.00022796  1
  I  I65  1  0.03686416  0.24887275  0.24967291  1
  I  I66  1  0.96466790  0.25366556  0.49981898  1
  I  I67  1  0.03391793  0.24802929  0.75028558  1
  I  I68  1  0.49653489  0.21959325  0.00064093  1
  I  I69  1  0.50397901  0.28205511  0.25008401  1
  I  I70  1  0.48098413  0.23287131  0.50017702  1
  I  I71  1  0.51596595  0.26666934  0.74950033  1
  I  I72  1  0.25351161  0.53160708  0.00155956  1
  I  I73  1  0.24510533  0.46810102  0.24843138  1
  I  I74  1  0.26675818  0.51978696  0.49938461  1
  I  I75  1  0.23131664  0.48098592  0.75054606  1
  I  I76  1  0.99419207  0.71867131  0.00040987  1
  I  I77  1  0.00300781  0.78074119  0.24950066  1
  I  I78  1  0.98288968  0.73463785  0.50051021  1
  I  I79  1  0.01675421  0.76681901  0.75038430  1
  I  I80  1  0.78396240  0.49611767  0.99896641  1
  I  I81  1  0.71535569  0.50434505  0.25119348  1
  I  I82  1  0.78295388  0.49392298  0.50026137  1
  I  I83  1  0.71427517  0.50610793  0.74983633  1
  I  I84  1  0.46204343  0.75318555  0.00037986  1
  I  I85  1  0.53729430  0.74701382  0.25005692  1
  I  I86  1  0.46287297  0.75360387  0.49955037  1
  I  I87  1  0.53235451  0.74800944  0.75030947  1
  I  I88  1  0.28414663  0.99622592  0.99952835  1
  I  I89  1  0.21552067  0.00448033  0.25056224  1
  I  I90  1  0.28232971  0.99398174  0.49961575  1
  I  I91  1  0.21537904  0.00720324  0.75051197  1
  I  I92  1  0.75225962  0.03136293  0.00178868  1
  I  I93  1  0.74624105  0.96864615  0.24900458  1
  I  I94  1  0.76979769  0.01832897  0.49998636  1
  I  I95  1  0.72934286  0.98140977  0.75011219  1
  I  I96  1  0.10756352  0.10824477  0.10547239  1
  I  I97  1  0.14604293  0.14678300  0.39402925  1
  I  I98  1  0.14437782  0.14617334  0.60739446  1
  I  I99  1  0.14109215  0.14423551  0.89444393  1
  I  I100  1  0.60573694  0.10816386  0.14192345  1
  I  I101  1  0.64766236  0.14620239  0.36856138  1
  I  I102  1  0.64563423  0.14608198  0.62071028  1
  I  I103  1  0.64328339  0.14444372  0.86945186  1
  I  I104  1  0.39447203  0.39393363  0.10990565  1
  I  I105  1  0.35503887  0.35599883  0.38060465  1
  I  I106  1  0.35247311  0.35413748  0.62873222  1
  I  I107  1  0.35171784  0.35393128  0.88223396  1
  I  I108  1  0.10542589  0.60780422  0.14003041  1
  I  I109  1  0.14723231  0.64731072  0.36727214  1
  I  I110  1  0.14586468  0.64660505  0.62132749  1
  I  I111  1  0.14340164  0.64441727  0.86963995  1
  I  I112  1  0.89175518  0.39361098  0.14432778  1
  I  I113  1  0.85689633  0.35634084  0.35571808  1
  I  I114  1  0.85349874  0.35518784  0.64282374  1
  I  I115  1  0.85305304  0.35470731  0.85531216  1
  I  I116  1  0.60755753  0.60775189  0.10548653  1
  I  I117  1  0.64546158  0.64552441  0.39527130  1
  I  I118  1  0.64400375  0.64607888  0.60729841  1
  I  I119  1  0.64127469  0.64429561  0.89421458  1
  I  I120  1  0.39148116  0.89303141  0.14462869  1
  I  I121  1  0.35718417  0.85635674  0.35546847  1
  I  I122  1  0.35332035  0.85538348  0.64270713  1
  I  I123  1  0.35220897  0.85468249  0.85613989  1
  I  I124  1  0.89331616  0.89377717  0.11014091  1
  I  I125  1  0.85546838  0.85569625  0.38066643  1
  I  I126  1  0.85274447  0.85388626  0.62943862  1
  I  I127  1  0.85117852  0.85389133  0.88190578  1
  I  I128  1  0.85871054  0.14203563  0.14441352  1
  I  I129  1  0.89907050  0.10388640  0.35927360  1
  I  I130  1  0.89525632  0.10455496  0.64042413  1
  I  I131  1  0.89102765  0.10464726  0.85938087  1
  I  I132  1  0.35561395  0.14431674  0.13907387  1
  I  I133  1  0.39661261  0.10601937  0.35786732  1
  I  I134  1  0.39490290  0.10376087  0.64210376  1
  I  I135  1  0.39152353  0.10636633  0.85670473  1
  I  I136  1  0.14097267  0.35849583  0.10554874  1
  I  I137  1  0.10618589  0.39665403  0.39052323  1
  I  I138  1  0.10279285  0.39637510  0.61036960  1
  I  I139  1  0.10035226  0.39652210  0.89085453  1
  I  I140  1  0.85474038  0.64439032  0.13922421  1
  I  I141  1  0.89649442  0.60596283  0.35926134  1
  I  I142  1  0.89521180  0.60391409  0.64241674  1
  I  I143  1  0.89135779  0.60622616  0.85584162  1
  I  I144  1  0.64439423  0.35660081  0.11116676  1
  I  I145  1  0.60648075  0.39392443  0.39419753  1
  I  I146  1  0.60248874  0.39611796  0.60714636  1
  I  I147  1  0.60263458  0.39423574  0.89110449  1
  I  I148  1  0.35857430  0.64195788  0.14438474  1
  I  I149  1  0.39822905  0.60373134  0.35912287  1
  I  I150  1  0.39480214  0.60482184  0.63931635  1
  I  I151  1  0.39140593  0.60481949  0.85975420  1
  I  I152  1  0.14268799  0.85771877  0.11092325  1
  I  I153  1  0.10570925  0.89587347  0.39222118  1
  I  I154  1  0.10288155  0.89681937  0.60835254  1
  I  I155  1  0.10252907  0.89419505  0.89255509  1
  I  I156  1  0.63997062  0.85891410  0.10639109  1
  I  I157  1  0.60751524  0.89527110  0.39125207  1
  I  I158  1  0.60266849  0.89603836  0.60968703  1
  I  I159  1  0.60021125  0.89657876  0.89081915  1
