# generated using pymatgen
data_RbMgF3
_symmetry_space_group_name_H-M   'P 1'
_cell_length_a   11.65872287
_cell_length_b   11.65872287
_cell_length_c   16.48792500
_cell_angle_alpha   90.00000000
_cell_angle_beta   90.00000000
_cell_angle_gamma   90.00000000
_symmetry_Int_Tables_number   1
_chemical_formula_structural   RbMgF3
_chemical_formula_sum   'Rb32 Mg32 F96'
_cell_volume   2241.13470783
_cell_formula_units_Z   32
loop_
 _symmetry_equiv_pos_site_id
 _symmetry_equiv_pos_as_xyz
  1  'x, y, z'
loop_
 _atom_site_type_symbol
 _atom_site_label
 _atom_site_symmetry_multiplicity
 _atom_site_fract_x
 _atom_site_fract_y
 _atom_site_fract_z
 _atom_site_occupancy
  F  F0  1  0.00104549  0.25046748  -0.00006935  1
  F  F1  1  0.00074915  0.25071143  0.24990352  1
  F  F2  1  0.00090667  0.25070532  0.49992112  1
  F  F3  1  0.00101097  0.25063528  0.74990805  1
  F  F4  1  0.50095469  0.25056819  0.99992252  1
  F  F5  1  0.50087615  0.25056671  0.24994254  1
  F  F6  1  0.50091158  0.25057077  0.49986533  1
  F  F7  1  0.50112472  0.25068535  0.74999398  1
  F  F8  1  0.25077518  0.50055960  -0.00004318  1
  F  F9  1  0.25065725  0.50058385  0.24989923  1
  F  F10  1  0.25073125  0.50078617  0.49991332  1
  F  F11  1  0.25082625  0.50067063  0.74987782  1
  F  F12  1  0.00078095  0.75049326  -0.00009621  1
  F  F13  1  0.00074756  0.75062702  0.24995331  1
  F  F14  1  0.00077085  0.75079898  0.49997705  1
  F  F15  1  0.00084695  0.75069937  0.74992726  1
  F  F16  1  0.75081183  0.50052564  -0.00011007  1
  F  F17  1  0.75066658  0.50051567  0.24997448  1
  F  F18  1  0.75075968  0.50065659  0.49990383  1
  F  F19  1  0.75087272  0.50049691  0.74994174  1
  F  F20  1  0.50093010  0.75043914  -0.00004179  1
  F  F21  1  0.50075991  0.75061025  0.24990361  1
  F  F22  1  0.50073765  0.75069831  0.49991781  1
  F  F23  1  0.50089634  0.75071564  0.74990247  1
  F  F24  1  0.25104912  0.00058631  -0.00006451  1
  F  F25  1  0.25086216  0.00054255  0.24990536  1
  F  F26  1  0.25084375  0.00083412  0.49998963  1
  F  F27  1  0.25108468  0.00068935  0.74994962  1
  F  F28  1  0.75109089  0.00040773  0.99993673  1
  F  F29  1  0.75082017  0.00057733  0.24994537  1
  F  F30  1  0.75086907  0.00068646  0.49989252  1
  F  F31  1  0.75109176  0.00058316  0.74992817  1
  F  F32  1  0.12592401  0.12547816  0.12496338  1
  F  F33  1  0.12585528  0.12558314  0.37494388  1
  F  F34  1  0.12600099  0.12572354  0.62496142  1
  F  F35  1  0.12607264  0.12554440  0.87489104  1
  F  F36  1  0.62591380  0.12543254  0.12495503  1
  F  F37  1  0.62581239  0.12562981  0.37490891  1
  F  F38  1  0.62597436  0.12562781  0.62483994  1
  F  F39  1  0.62613829  0.12547850  0.87494929  1
  F  F40  1  0.37572834  0.37549132  0.12498561  1
  F  F41  1  0.37561297  0.37568000  0.37491784  1
  F  F42  1  0.37588465  0.37565785  0.62490723  1
  F  F43  1  0.37587845  0.37562438  0.87490123  1
  F  F44  1  0.12565444  0.62540889  0.12490228  1
  F  F45  1  0.12562417  0.62564046  0.37491232  1
  F  F46  1  0.12575131  0.62563862  0.62493768  1
  F  F47  1  0.12579787  0.62545136  0.87490661  1
  F  F48  1  0.87572597  0.37544108  0.12492559  1
  F  F49  1  0.87572234  0.37559782  0.37492500  1
  F  F50  1  0.87576915  0.37556541  0.62490509  1
  F  F51  1  0.87582378  0.37542578  0.87493211  1
  F  F52  1  0.62568542  0.62539904  0.12493578  1
  F  F53  1  0.62560628  0.62557837  0.37490173  1
  F  F54  1  0.62576842  0.62562745  0.62494186  1
  F  F55  1  0.62575777  0.62547651  0.87498582  1
  F  F56  1  0.37581451  0.87558500  0.12488487  1
  F  F57  1  0.37571336  0.87574331  0.37491030  1
  F  F58  1  0.37587019  0.87570267  0.62490512  1
  F  F59  1  0.37601425  0.87557173  0.87492489  1
  F  F60  1  0.87586347  0.87545893  0.12488733  1
  F  F61  1  0.87574972  0.87569898  0.37492132  1
  F  F62  1  0.87580609  0.87569071  0.62489301  1
  F  F63  1  0.87597980  0.87543887  0.87497062  1
  F  F64  1  0.87584823  0.12547543  0.12490396  1
  F  F65  1  0.87583803  0.12559928  0.37489223  1
  F  F66  1  0.87597713  0.12558880  0.62491841  1
  F  F67  1  0.87613470  0.12549406  0.87495651  1
  F  F68  1  0.37599034  0.12551424  0.12494134  1
  F  F69  1  0.37580070  0.12565306  0.37488052  1
  F  F70  1  0.37601263  0.12574529  0.62499035  1
  F  F71  1  0.37615046  0.12555491  0.87489862  1
  F  F72  1  0.12570055  0.37549975  0.12494246  1
  F  F73  1  0.12564627  0.37565869  0.37492215  1
  F  F74  1  0.12580936  0.37566378  0.62493982  1
  F  F75  1  0.12592587  0.37549601  0.87494279  1
  F  F76  1  0.87562961  0.62547324  0.12491977  1
  F  F77  1  0.87554088  0.62579156  0.37499440  1
  F  F78  1  0.87570761  0.62564130  0.62493605  1
  F  F79  1  0.87585203  0.62545624  0.87493650  1
  F  F80  1  0.62581019  0.37550704  0.12497372  1
  F  F81  1  0.62559107  0.37571160  0.37499174  1
  F  F82  1  0.62578700  0.37563074  0.62492501  1
  F  F83  1  0.62591385  0.37543631  0.87496586  1
  F  F84  1  0.37571633  0.62550995  0.12496391  1
  F  F85  1  0.37557878  0.62573560  0.37487850  1
  F  F86  1  0.37570869  0.62578481  0.62494697  1
  F  F87  1  0.37582059  0.62560102  0.87489403  1
  F  F88  1  0.12581804  0.87541808  0.12490780  1
  F  F89  1  0.12560580  0.87575055  0.37495398  1
  F  F90  1  0.12581922  0.87575333  0.62493545  1
  F  F91  1  0.12599534  0.87554373  0.87499311  1
  F  F92  1  0.62585575  0.87545506  0.12498427  1
  F  F93  1  0.62577626  0.87557720  0.37488870  1
  F  F94  1  0.62588456  0.87567219  0.62495441  1
  F  F95  1  0.62596823  0.87557993  0.87485351  1
  Mg  Mg96  1  0.00083437  0.25047064  0.12492693  1
  Mg  Mg97  1  0.00081623  0.25063795  0.37489042  1
  Mg  Mg98  1  0.00096755  0.25065363  0.62491326  1
  Mg  Mg99  1  0.00105622  0.25052951  0.87493858  1
  Mg  Mg100  1  0.50092728  0.25049269  0.12496238  1
  Mg  Mg101  1  0.50079257  0.25066869  0.37487384  1
  Mg  Mg102  1  0.50100858  0.25069029  0.62491566  1
  Mg  Mg103  1  0.50099753  0.25048023  0.87494223  1
  Mg  Mg104  1  0.25063773  0.50050346  0.12493222  1
  Mg  Mg105  1  0.25066132  0.50066734  0.37489567  1
  Mg  Mg106  1  0.25077852  0.50071889  0.62486780  1
  Mg  Mg107  1  0.25084045  0.50062216  0.87496369  1
  Mg  Mg108  1  0.00069934  0.75041678  0.12493555  1
  Mg  Mg109  1  0.00064973  0.75074475  0.37490405  1
  Mg  Mg110  1  0.00078944  0.75072815  0.62493002  1
  Mg  Mg111  1  0.00088660  0.75052222  0.87488169  1
  Mg  Mg112  1  0.75070401  0.50048833  0.12492075  1
  Mg  Mg113  1  0.75061518  0.50059842  0.37495729  1
  Mg  Mg114  1  0.75077910  0.50061241  0.62489178  1
  Mg  Mg115  1  0.75084210  0.50048826  0.87492269  1
  Mg  Mg116  1  0.50074314  0.75048424  0.12491690  1
  Mg  Mg117  1  0.50068949  0.75062538  0.37487837  1
  Mg  Mg118  1  0.50083987  0.75070245  0.62487623  1
  Mg  Mg119  1  0.50092739  0.75059166  0.87493083  1
  Mg  Mg120  1  0.25092852  0.00050748  0.12491065  1
  Mg  Mg121  1  0.25083402  0.00066097  0.37489662  1
  Mg  Mg122  1  0.25100534  0.00071893  0.62494590  1
  Mg  Mg123  1  0.25107321  0.00059586  0.87491612  1
  Mg  Mg124  1  0.75092380  0.00045802  0.12489419  1
  Mg  Mg125  1  0.75080821  0.00065560  0.37487545  1
  Mg  Mg126  1  0.75091505  0.00064298  0.62487388  1
  Mg  Mg127  1  0.75108083  0.00054816  0.87495862  1
  Rb  Rb128  1  0.00101878  0.00037524  -0.00007814  1
  Rb  Rb129  1  0.00091994  0.00065858  0.24990768  1
  Rb  Rb130  1  0.00089833  0.00071488  0.49987552  1
  Rb  Rb131  1  0.00105588  0.00061113  0.74990109  1
  Rb  Rb132  1  0.50099802  0.00052335  0.00000351  1
  Rb  Rb133  1  0.50090763  0.00050006  0.24990465  1
  Rb  Rb134  1  0.50089440  0.00077351  0.49993847  1
  Rb  Rb135  1  0.50105511  0.00060733  0.74993692  1
  Rb  Rb136  1  0.25091158  0.25061434  -0.00007580  1
  Rb  Rb137  1  0.25085191  0.25067947  0.24992122  1
  Rb  Rb138  1  0.25075037  0.25074976  0.49993688  1
  Rb  Rb139  1  0.25100281  0.25073131  0.74994592  1
  Rb  Rb140  1  0.00080979  0.50049161  -0.00005749  1
  Rb  Rb141  1  0.00060932  0.50058752  0.24999274  1
  Rb  Rb142  1  0.00071854  0.50073716  0.49993739  1
  Rb  Rb143  1  0.00081899  0.50062510  0.74991315  1
  Rb  Rb144  1  0.75100953  0.25048224  0.99998674  1
  Rb  Rb145  1  0.75082014  0.25057544  0.24988840  1
  Rb  Rb146  1  0.75084653  0.25063987  0.49994582  1
  Rb  Rb147  1  0.75107919  0.25048955  0.74988858  1
  Rb  Rb148  1  0.50082141  0.50052061  0.99990665  1
  Rb  Rb149  1  0.50055078  0.50062290  0.24990023  1
  Rb  Rb150  1  0.50059033  0.50067571  0.49989053  1
  Rb  Rb151  1  0.50083379  0.50057772  0.74986418  1
  Rb  Rb152  1  0.25083075  0.75050474  -0.00011215  1
  Rb  Rb153  1  0.25063556  0.75055913  0.24994637  1
  Rb  Rb154  1  0.25074729  0.75074913  0.49990078  1
  Rb  Rb155  1  0.25084041  0.75061363  0.74990673  1
  Rb  Rb156  1  0.75083351  0.75038849  0.99992598  1
  Rb  Rb157  1  0.75066340  0.75052688  0.24998901  1
  Rb  Rb158  1  0.75070364  0.75075066  0.49991270  1
  Rb  Rb159  1  0.75083095  0.75062467  0.74994822  1
