# generated using pymatgen
data_RbMgBr3
_symmetry_space_group_name_H-M   'P 1'
_cell_length_a   15.25096108
_cell_length_b   15.25096108
_cell_length_c   21.56811700
_cell_angle_alpha   90.00000000
_cell_angle_beta   90.00000000
_cell_angle_gamma   90.00000000
_symmetry_Int_Tables_number   1
_chemical_formula_structural   RbMgBr3
_chemical_formula_sum   'Rb32 Mg32 Br96'
_cell_volume   5016.56745532
_cell_formula_units_Z   32
loop_
 _symmetry_equiv_pos_site_id
 _symmetry_equiv_pos_as_xyz
  1  'x, y, z'
loop_
 _atom_site_type_symbol
 _atom_site_label
 _atom_site_symmetry_multiplicity
 _atom_site_fract_x
 _atom_site_fract_y
 _atom_site_fract_z
 _atom_site_occupancy
  Br  Br0  1  0.14052903  0.10983782  -0.00781427  1
  Br  Br1  1  0.11089389  0.13863974  0.25573312  1
  Br  Br2  1  0.13790605  0.10971461  0.49216960  1
  Br  Br3  1  0.14018189  0.10872993  0.75790375  1
  Br  Br4  1  0.64009835  0.11014525  -0.00665346  1
  Br  Br5  1  0.61139826  0.13758141  0.25478289  1
  Br  Br6  1  0.63798616  0.10915858  0.49322783  1
  Br  Br7  1  0.64032397  0.10841492  0.75708922  1
  Br  Br8  1  0.36110697  0.38898218  0.00697647  1
  Br  Br9  1  0.38833392  0.36058849  0.24333240  1
  Br  Br10  1  0.35771453  0.38977963  0.50734096  1
  Br  Br11  1  0.35876033  0.38950168  0.74095812  1
  Br  Br12  1  0.14018989  0.61006900  -0.00670818  1
  Br  Br13  1  0.11006708  0.63886433  0.25456599  1
  Br  Br14  1  0.13763194  0.60962195  0.49396114  1
  Br  Br15  1  0.13971323  0.60884221  0.75709992  1
  Br  Br16  1  0.86120465  0.38889589  0.00583441  1
  Br  Br17  1  0.88778217  0.36138869  0.24486066  1
  Br  Br18  1  0.85782143  0.38951992  0.50572127  1
  Br  Br19  1  0.85855322  0.39002201  0.74230374  1
  Br  Br20  1  0.64033731  0.60977181  0.99200262  1
  Br  Br21  1  0.61039519  0.63846907  0.25530498  1
  Br  Br22  1  0.63772852  0.60951644  0.49250214  1
  Br  Br23  1  0.63962156  0.60873323  0.75827445  1
  Br  Br24  1  0.36175568  0.88851723  0.00556742  1
  Br  Br25  1  0.38884099  0.85999946  0.24494374  1
  Br  Br26  1  0.35758834  0.88967242  0.50570736  1
  Br  Br27  1  0.35888537  0.88993127  0.74230312  1
  Br  Br28  1  0.86183602  0.88889467  0.00639209  1
  Br  Br29  1  0.88864245  0.86088144  0.24356483  1
  Br  Br30  1  0.85763672  0.88985305  0.50683701  1
  Br  Br31  1  0.85902299  0.88978488  0.74150159  1
  Br  Br32  1  0.89026071  0.13932403  -0.00716899  1
  Br  Br33  1  0.86133663  0.11120192  0.25558646  1
  Br  Br34  1  0.88797335  0.13941973  0.49192691  1
  Br  Br35  1  0.89020082  0.14018935  0.75800802  1
  Br  Br36  1  0.39013965  0.13898379  -0.01026384  1
  Br  Br37  1  0.36109311  0.11073243  0.25863561  1
  Br  Br38  1  0.38802485  0.13944086  0.48943763  1
  Br  Br39  1  0.39003610  0.13988566  0.76069676  1
  Br  Br40  1  0.11129068  0.36017059  0.01011452  1
  Br  Br41  1  0.13794411  0.38874394  0.24061680  1
  Br  Br42  1  0.10802597  0.35953197  0.50927521  1
  Br  Br43  1  0.10886160  0.35885770  0.73875639  1
  Br  Br44  1  0.89024555  0.63889258  0.98892137  1
  Br  Br45  1  0.86039084  0.61121055  0.25901815  1
  Br  Br46  1  0.88749334  0.63951345  0.48987903  1
  Br  Br47  1  0.88966612  0.63959869  0.76046443  1
  Br  Br48  1  0.61129920  0.36020707  0.00737661  1
  Br  Br49  1  0.63791279  0.38819181  0.24403732  1
  Br  Br50  1  0.60795111  0.35894187  0.50703276  1
  Br  Br51  1  0.60841806  0.35791029  0.74076310  1
  Br  Br52  1  0.39039470  0.63908829  -0.00821532  1
  Br  Br53  1  0.36011370  0.61033554  0.25603656  1
  Br  Br54  1  0.38776543  0.63933667  0.49209181  1
  Br  Br55  1  0.38958481  0.63944277  0.75863930  1
  Br  Br56  1  0.11166869  0.86039558  0.00718942  1
  Br  Br57  1  0.13907562  0.88892340  0.24327153  1
  Br  Br58  1  0.10761931  0.85893378  0.50748589  1
  Br  Br59  1  0.10832441  0.85852403  0.74071179  1
  Br  Br60  1  0.61204037  0.86026748  0.00980221  1
  Br  Br61  1  0.63887620  0.88840526  0.23989569  1
  Br  Br62  1  0.60734607  0.85875950  0.50956634  1
  Br  Br63  1  0.60891510  0.85901176  0.73908985  1
  Br  Br64  1  0.00004471  0.01313719  0.12458070  1
  Br  Br65  1  -0.00036493  0.98617599  0.37470474  1
  Br  Br66  1  -0.00127845  0.01546698  0.62471924  1
  Br  Br67  1  0.00008332  -0.01551299  0.87452841  1
  Br  Br68  1  0.49578921  0.01397719  0.12460380  1
  Br  Br69  1  0.50296863  0.98392020  0.37464018  1
  Br  Br70  1  0.49546386  0.01682133  0.62465308  1
  Br  Br71  1  0.50300694  0.98201275  0.87467081  1
  Br  Br72  1  0.25287035  0.23331323  0.12460387  1
  Br  Br73  1  0.24647784  0.26597158  0.37462153  1
  Br  Br74  1  0.25150602  0.23036810  0.62466187  1
  Br  Br75  1  0.24685390  0.26841516  0.87457957  1
  Br  Br76  1  -0.00457425  0.51485302  0.12452514  1
  Br  Br77  1  0.00246230  0.48515007  0.37480040  1
  Br  Br78  1  -0.00477150  0.51647148  0.62480265  1
  Br  Br79  1  0.00352226  0.48104020  0.87457894  1
  Br  Br80  1  0.75059021  0.23721147  0.12480170  1
  Br  Br81  1  0.74750177  0.26139938  0.37478070  1
  Br  Br82  1  0.75051650  0.23356228  0.62471809  1
  Br  Br83  1  0.74926645  0.26415319  0.87458745  1
  Br  Br84  1  0.49982165  0.51326281  0.12458274  1
  Br  Br85  1  0.49921251  0.48631872  0.37483024  1
  Br  Br86  1  0.49944307  0.51497908  0.62488404  1
  Br  Br87  1  0.49979520  0.48251037  0.87458324  1
  Br  Br88  1  0.25105583  0.73712169  0.12456945  1
  Br  Br89  1  0.24694326  0.76166122  0.37481526  1
  Br  Br90  1  0.25080031  0.73405744  0.62487707  1
  Br  Br91  1  0.24819049  0.76492471  0.87455436  1
  Br  Br92  1  0.75369520  0.73275489  0.12435452  1
  Br  Br93  1  0.74510879  0.76574758  0.37472735  1
  Br  Br94  1  0.75134370  0.73116986  0.62487172  1
  Br  Br95  1  0.74706568  0.76816816  0.87456021  1
  Mg  Mg96  1  0.00129261  -0.00069297  -0.00041862  1
  Mg  Mg97  1  -0.00023482  -0.00044000  0.24969702  1
  Mg  Mg98  1  -0.00232582  -0.00019774  0.49977649  1
  Mg  Mg99  1  -0.00064799  -0.00052738  0.74953016  1
  Mg  Mg100  1  0.50114985  -0.00111287  -0.00047072  1
  Mg  Mg101  1  0.49956444  -0.00081327  0.24970382  1
  Mg  Mg102  1  0.49774409  -0.00007910  0.49975232  1
  Mg  Mg103  1  0.49936498  -0.00047741  0.74964947  1
  Mg  Mg104  1  0.25088820  0.25005440  -0.00044824  1
  Mg  Mg105  1  0.24947674  0.24964581  0.24964487  1
  Mg  Mg106  1  0.24792175  0.24898352  0.49978454  1
  Mg  Mg107  1  0.24933795  0.24927550  0.74963377  1
  Mg  Mg108  1  0.00096736  0.49896147  -0.00055821  1
  Mg  Mg109  1  0.99921636  0.50005125  0.24966854  1
  Mg  Mg110  1  -0.00249524  0.50000629  0.49985717  1
  Mg  Mg111  1  -0.00072793  0.49917985  0.74981311  1
  Mg  Mg112  1  0.75107857  0.25017784  -0.00035352  1
  Mg  Mg113  1  0.74940640  0.24951975  0.24983019  1
  Mg  Mg114  1  0.74763881  0.24857946  0.49990686  1
  Mg  Mg115  1  0.74937431  0.24922956  0.74960643  1
  Mg  Mg116  1  0.50101170  0.49901965  -0.00053197  1
  Mg  Mg117  1  0.49917526  0.49959703  0.24969218  1
  Mg  Mg118  1  0.49769908  0.49966198  0.49993407  1
  Mg  Mg119  1  0.49937020  0.49883112  0.74976192  1
  Mg  Mg120  1  0.25114852  0.74989164  -0.00057765  1
  Mg  Mg121  1  0.24939455  0.74956820  0.24971448  1
  Mg  Mg122  1  0.24770641  0.74899407  0.49990432  1
  Mg  Mg123  1  0.24930375  0.74940135  0.74968363  1
  Mg  Mg124  1  0.75104695  0.74961847  0.99940420  1
  Mg  Mg125  1  0.74927816  0.74965694  0.24955019  1
  Mg  Mg126  1  0.74747742  0.74918887  0.49975989  1
  Mg  Mg127  1  0.74926739  0.74924838  0.74978176  1
  Rb  Rb128  1  -0.00106823  0.24775814  0.12627663  1
  Rb  Rb129  1  0.00032446  0.25105658  0.37482218  1
  Rb  Rb130  1  -0.01238743  0.24990886  0.62436384  1
  Rb  Rb131  1  0.01084164  0.24741910  0.87512195  1
  Rb  Rb132  1  0.49861161  0.24776389  0.12428209  1
  Rb  Rb133  1  0.50002017  0.25146369  0.37281390  1
  Rb  Rb134  1  0.48734363  0.25081738  0.62411088  1
  Rb  Rb135  1  0.51166346  0.24850341  0.87504856  1
  Rb  Rb136  1  0.24944882  0.50227205  0.12426031  1
  Rb  Rb137  1  0.24880013  0.49924172  0.37462469  1
  Rb  Rb138  1  0.23688418  0.49711924  0.62455137  1
  Rb  Rb139  1  0.26066629  0.50256314  0.87471639  1
  Rb  Rb140  1  -0.00134640  0.74856529  0.12412526  1
  Rb  Rb141  1  -0.00071092  0.75150118  0.37340769  1
  Rb  Rb142  1  -0.01255088  0.75033986  0.62433428  1
  Rb  Rb143  1  0.01067979  0.74982552  0.87471954  1
  Rb  Rb144  1  0.74931350  0.49964727  0.12503455  1
  Rb  Rb145  1  0.74873520  0.49667799  0.37489254  1
  Rb  Rb146  1  0.73817879  0.49622910  0.62432314  1
  Rb  Rb147  1  0.76147908  0.50124186  0.87484106  1
  Rb  Rb148  1  0.49918938  0.74765022  0.12571595  1
  Rb  Rb149  1  0.49983992  0.75014435  0.37480192  1
  Rb  Rb150  1  0.48782197  0.74921576  0.62480518  1
  Rb  Rb151  1  0.51069023  0.74816696  0.87489728  1
  Rb  Rb152  1  0.25006070  -0.00006555  0.12448876  1
  Rb  Rb153  1  0.24936569  -0.00307173  0.37468994  1
  Rb  Rb154  1  0.23755711  -0.00421890  0.62427995  1
  Rb  Rb155  1  0.26158640  0.00167161  0.87495632  1
  Rb  Rb156  1  0.75065861  0.00231562  0.12386255  1
  Rb  Rb157  1  0.74919511  -0.00092315  0.37364489  1
  Rb  Rb158  1  0.73709632  -0.00316209  0.62446668  1
  Rb  Rb159  1  0.76083667  0.00270107  0.87495295  1
