# generated using pymatgen
data_RbMgCl3
_symmetry_space_group_name_H-M   'P 1'
_cell_length_a   14.31137880
_cell_length_b   14.31137880
_cell_length_c   20.23934600
_cell_angle_alpha   90.00000000
_cell_angle_beta   90.00000000
_cell_angle_gamma   90.00000000
_symmetry_Int_Tables_number   1
_chemical_formula_structural   RbMgCl3
_chemical_formula_sum   'Rb32 Mg32 Cl96'
_cell_volume   4145.33305088
_cell_formula_units_Z   32
loop_
 _symmetry_equiv_pos_site_id
 _symmetry_equiv_pos_as_xyz
  1  'x, y, z'
loop_
 _atom_site_type_symbol
 _atom_site_label
 _atom_site_symmetry_multiplicity
 _atom_site_fract_x
 _atom_site_fract_y
 _atom_site_fract_z
 _atom_site_occupancy
  Cl  Cl0  1  0.12517701  0.12388529  0.00026085  1
  Cl  Cl1  1  0.12503597  0.12403844  0.24966170  1
  Cl  Cl2  1  0.12765839  0.12176862  0.49975576  1
  Cl  Cl3  1  0.12492512  0.12455093  0.74991342  1
  Cl  Cl4  1  0.62525422  0.12391915  0.99964112  1
  Cl  Cl5  1  0.62508285  0.12351695  0.25024282  1
  Cl  Cl6  1  0.62758964  0.12129998  0.49952439  1
  Cl  Cl7  1  0.62493040  0.12439269  0.75016438  1
  Cl  Cl8  1  0.37595205  0.37330577  -0.00046158  1
  Cl  Cl9  1  0.37565855  0.37335514  0.24985278  1
  Cl  Cl10  1  0.37312232  0.37591087  0.49994380  1
  Cl  Cl11  1  0.37651175  0.37254683  0.75038046  1
  Cl  Cl12  1  0.12511575  0.62399346  0.99958055  1
  Cl  Cl13  1  0.12464543  0.62421451  0.24992122  1
  Cl  Cl14  1  0.12716926  0.62174478  0.50014271  1
  Cl  Cl15  1  0.12469232  0.62450560  0.74992559  1
  Cl  Cl16  1  0.87619088  0.37273756  0.00021624  1
  Cl  Cl17  1  0.87569682  0.37319809  0.24977346  1
  Cl  Cl18  1  0.87319340  0.37594447  0.49994056  1
  Cl  Cl19  1  0.87643299  0.37289701  0.74959426  1
  Cl  Cl20  1  0.62498983  0.62414252  -0.00007489  1
  Cl  Cl21  1  0.62486118  0.62370408  0.25001038  1
  Cl  Cl22  1  0.62733459  0.62145243  0.50005655  1
  Cl  Cl23  1  0.62472839  0.62455046  0.74971740  1
  Cl  Cl24  1  0.37626158  0.87317956  0.00016727  1
  Cl  Cl25  1  0.37560498  0.87312083  0.24965566  1
  Cl  Cl26  1  0.37326782  0.87578858  0.50000858  1
  Cl  Cl27  1  0.37702126  0.87239998  0.74991271  1
  Cl  Cl28  1  0.87665890  0.87236646  -0.00014902  1
  Cl  Cl29  1  0.87570468  0.87322993  0.25003733  1
  Cl  Cl30  1  0.87337954  0.87596147  0.49982545  1
  Cl  Cl31  1  0.87694242  0.87288006  0.74966295  1
  Cl  Cl32  1  0.87508329  0.12292865  0.00098149  1
  Cl  Cl33  1  0.87497470  0.12318730  0.24879742  1
  Cl  Cl34  1  0.87758405  0.12584542  0.50065068  1
  Cl  Cl35  1  0.87496807  0.12320291  0.74913730  1
  Cl  Cl36  1  0.37529679  0.12334858  0.00060102  1
  Cl  Cl37  1  0.37498824  0.12328352  0.24925981  1
  Cl  Cl38  1  0.37746251  0.12581810  0.50048226  1
  Cl  Cl39  1  0.37479379  0.12274944  0.74940230  1
  Cl  Cl40  1  0.12572145  0.37399053  0.99931732  1
  Cl  Cl41  1  0.12555773  0.37421263  0.25023370  1
  Cl  Cl42  1  0.12303617  0.37146924  0.49945633  1
  Cl  Cl43  1  0.12632893  0.37459541  0.75050493  1
  Cl  Cl44  1  0.87466537  0.62257100  0.00018159  1
  Cl  Cl45  1  0.87463254  0.62313542  0.24980562  1
  Cl  Cl46  1  0.87703649  0.62566874  0.50036087  1
  Cl  Cl47  1  0.87488422  0.62316132  0.74943980  1
  Cl  Cl48  1  0.62589910  0.37398410  0.99909566  1
  Cl  Cl49  1  0.62533612  0.37361144  0.25086476  1
  Cl  Cl50  1  0.62298429  0.37131597  0.49914327  1
  Cl  Cl51  1  0.62627080  0.37444980  0.75065112  1
  Cl  Cl52  1  0.37514076  0.62340242  0.00066117  1
  Cl  Cl53  1  0.37464903  0.62312937  0.24893552  1
  Cl  Cl54  1  0.37721100  0.62566611  0.50093097  1
  Cl  Cl55  1  0.37461904  0.62268229  0.74911847  1
  Cl  Cl56  1  0.12632973  0.87412909  0.99879823  1
  Cl  Cl57  1  0.12549903  0.87392896  0.25106695  1
  Cl  Cl58  1  0.12322116  0.87173849  0.49902208  1
  Cl  Cl59  1  0.12685979  0.87501684  0.75057407  1
  Cl  Cl60  1  0.62629006  0.87420846  -0.00048318  1
  Cl  Cl61  1  0.62528125  0.87347891  0.25027736  1
  Cl  Cl62  1  0.62315886  0.87144815  0.49950308  1
  Cl  Cl63  1  0.62673866  0.87489060  0.75035023  1
  Cl  Cl64  1  0.00149086  0.99706864  0.12491532  1
  Cl  Cl65  1  0.99953251  0.99983849  0.37485884  1
  Cl  Cl66  1  0.00146216  -0.00172312  0.62481766  1
  Cl  Cl67  1  -0.00024562  0.99949666  0.87495640  1
  Cl  Cl68  1  0.50136424  -0.00179790  0.12493337  1
  Cl  Cl69  1  0.49922995  -0.00140936  0.37486071  1
  Cl  Cl70  1  0.50130242  0.99819628  0.62483068  1
  Cl  Cl71  1  0.49998639  0.99901383  0.87493117  1
  Cl  Cl72  1  0.25004923  0.24948939  0.12477675  1
  Cl  Cl73  1  0.25065429  0.24851855  0.37479002  1
  Cl  Cl74  1  0.25001300  0.24936813  0.62496265  1
  Cl  Cl75  1  0.25081038  0.24781679  0.87495724  1
  Cl  Cl76  1  0.00082299  0.49856786  0.12486909  1
  Cl  Cl77  1  -0.00013467  0.49917989  0.37500460  1
  Cl  Cl78  1  0.00106105  0.49818436  0.62485013  1
  Cl  Cl79  1  -0.00012779  0.49900492  0.87480415  1
  Cl  Cl80  1  0.74934357  0.24932376  0.12497159  1
  Cl  Cl81  1  0.75124331  0.24797603  0.37487680  1
  Cl  Cl82  1  0.74959530  0.24918313  0.62486255  1
  Cl  Cl83  1  0.75166850  0.24826910  0.87487682  1
  Cl  Cl84  1  0.50116446  0.49745251  0.12483513  1
  Cl  Cl85  1  0.49936301  0.49946770  0.37490847  1
  Cl  Cl86  1  0.50108431  0.49743199  0.62498152  1
  Cl  Cl87  1  0.50012016  0.49960294  0.87487534  1
  Cl  Cl88  1  0.24931014  0.74947169  0.12487337  1
  Cl  Cl89  1  0.25094900  0.74772110  0.37500920  1
  Cl  Cl90  1  0.24974803  0.74964475  0.62487711  1
  Cl  Cl91  1  0.25143818  0.74820441  0.87486446  1
  Cl  Cl92  1  0.75003937  0.74881485  0.12495566  1
  Cl  Cl93  1  0.75029633  0.74854691  0.37501400  1
  Cl  Cl94  1  0.75008279  0.74952723  0.62490493  1
  Cl  Cl95  1  0.75088520  0.74844278  0.87486009  1
  Mg  Mg96  1  0.00073046  0.99852121  -0.00004925  1
  Mg  Mg97  1  0.00036408  -0.00124200  0.24989368  1
  Mg  Mg98  1  0.00047649  -0.00097747  0.49988384  1
  Mg  Mg99  1  0.00068102  -0.00101073  0.74990214  1
  Mg  Mg100  1  0.50064074  -0.00141087  -0.00005703  1
  Mg  Mg101  1  0.50027406  0.99838506  0.24982904  1
  Mg  Mg102  1  0.50031301  -0.00124611  0.49985108  1
  Mg  Mg103  1  0.50064525  -0.00121025  0.74994984  1
  Mg  Mg104  1  0.25055010  0.24860924  -0.00015248  1
  Mg  Mg105  1  0.25043681  0.24874353  0.24977361  1
  Mg  Mg106  1  0.25038828  0.24892045  0.49985077  1
  Mg  Mg107  1  0.25061816  0.24878443  0.74991805  1
  Mg  Mg108  1  0.00052882  0.49862646  0.99976028  1
  Mg  Mg109  1  0.00012610  0.49873496  0.24990879  1
  Mg  Mg110  1  0.00023430  0.49885104  0.49992849  1
  Mg  Mg111  1  0.00047528  0.49880829  0.74981426  1
  Mg  Mg112  1  0.75054638  0.24854653  0.99999747  1
  Mg  Mg113  1  0.75017667  0.24849249  0.24995909  1
  Mg  Mg114  1  0.75035296  0.24869461  0.49985257  1
  Mg  Mg115  1  0.75059137  0.24882433  0.74986038  1
  Mg  Mg116  1  0.50048617  0.49873167  -0.00016559  1
  Mg  Mg117  1  0.50024180  0.49863934  0.24985779  1
  Mg  Mg118  1  0.50023437  0.49877186  0.49989549  1
  Mg  Mg119  1  0.50050836  0.49879350  0.74980380  1
  Mg  Mg120  1  0.25057584  0.74868656  -0.00009547  1
  Mg  Mg121  1  0.25015220  0.74860479  0.24989570  1
  Mg  Mg122  1  0.25027905  0.74879110  0.49990885  1
  Mg  Mg123  1  0.25061606  0.74879461  0.74986154  1
  Mg  Mg124  1  0.75064641  0.74852802  -0.00008429  1
  Mg  Mg125  1  0.75021850  0.74859954  0.24999537  1
  Mg  Mg126  1  0.75028321  0.74888608  0.49991503  1
  Mg  Mg127  1  0.75073417  0.74891191  0.74990863  1
  Rb  Rb128  1  0.00050685  0.24873449  0.12483507  1
  Rb  Rb129  1  0.00032210  0.24850727  0.37480014  1
  Rb  Rb130  1  0.00057000  0.24878918  0.62489899  1
  Rb  Rb131  1  0.00071249  0.24856602  0.87494141  1
  Rb  Rb132  1  0.50047821  0.24834597  0.12484289  1
  Rb  Rb133  1  0.50023418  0.24844229  0.37479933  1
  Rb  Rb134  1  0.50074379  0.24849792  0.62494784  1
  Rb  Rb135  1  0.50094489  0.24861799  0.87484788  1
  Rb  Rb136  1  0.25028461  0.49852276  0.12476533  1
  Rb  Rb137  1  0.25002305  0.49868696  0.37494579  1
  Rb  Rb138  1  0.25025465  0.49851514  0.62500562  1
  Rb  Rb139  1  0.25074019  0.49865756  0.87491888  1
  Rb  Rb140  1  0.00027705  0.74826801  0.12487752  1
  Rb  Rb141  1  0.00009306  0.74857550  0.37489397  1
  Rb  Rb142  1  0.00063302  0.74896606  0.62477357  1
  Rb  Rb143  1  0.00098546  0.74866028  0.87469503  1
  Rb  Rb144  1  0.75047671  0.49840386  0.12501222  1
  Rb  Rb145  1  0.75014744  0.49843077  0.37502655  1
  Rb  Rb146  1  0.75035854  0.49869528  0.62490167  1
  Rb  Rb147  1  0.75053746  0.49868858  0.87497106  1
  Rb  Rb148  1  0.50057567  0.74835257  0.12490577  1
  Rb  Rb149  1  0.50009995  0.74825675  0.37484968  1
  Rb  Rb150  1  0.50047861  0.74864548  0.62484709  1
  Rb  Rb151  1  0.50089384  0.74850098  0.87490406  1
  Rb  Rb152  1  0.25054387  -0.00161363  0.12486868  1
  Rb  Rb153  1  0.25027627  0.99876507  0.37486480  1
  Rb  Rb154  1  0.25060671  -0.00127923  0.62489793  1
  Rb  Rb155  1  0.25111156  0.99870599  0.87520811  1
  Rb  Rb156  1  0.75065158  0.99827207  0.12474698  1
  Rb  Rb157  1  0.75007520  0.99829181  0.37483176  1
  Rb  Rb158  1  0.75063043  -0.00134809  0.62480951  1
  Rb  Rb159  1  0.75092475  0.99859718  0.87489555  1
