# generated using pymatgen
data_RbPbF3
_symmetry_space_group_name_H-M   'P 1'
_cell_length_a   13.67581567
_cell_length_b   13.67581567
_cell_length_c   19.34052300
_cell_angle_alpha   90.00000000
_cell_angle_beta   90.00000000
_cell_angle_gamma   90.00000000
_symmetry_Int_Tables_number   1
_chemical_formula_structural   RbPbF3
_chemical_formula_sum   'Rb32 Pb32 F96'
_cell_volume   3617.21806492
_cell_formula_units_Z   32
loop_
 _symmetry_equiv_pos_site_id
 _symmetry_equiv_pos_as_xyz
  1  'x, y, z'
loop_
 _atom_site_type_symbol
 _atom_site_label
 _atom_site_symmetry_multiplicity
 _atom_site_fract_x
 _atom_site_fract_y
 _atom_site_fract_z
 _atom_site_occupancy
  F  F0  1  0.03847527  0.23357325  0.00396646  1
  F  F1  1  0.96065981  0.26416690  0.25379473  1
  F  F2  1  0.03806504  0.26427462  0.50490092  1
  F  F3  1  0.95795032  0.26637647  0.75502774  1
  F  F4  1  0.54101005  0.23329699  0.00422970  1
  F  F5  1  0.46139709  0.26449404  0.25366427  1
  F  F6  1  0.53699872  0.26407091  0.50472556  1
  F  F7  1  0.46074897  0.26423384  0.75531121  1
  F  F8  1  0.20963997  0.48161698  0.00414355  1
  F  F9  1  0.29051215  0.51268477  0.25384753  1
  F  F10  1  0.20987955  0.51395192  0.50499528  1
  F  F11  1  0.29003112  0.51765373  0.75528500  1
  F  F12  1  0.04092685  0.73378431  0.00408434  1
  F  F13  1  0.96186124  0.76280989  0.25375259  1
  F  F14  1  0.03851767  0.76563319  0.50490618  1
  F  F15  1  0.95935367  0.76569825  0.75526073  1
  F  F16  1  0.70959430  0.48372463  0.00432257  1
  F  F17  1  0.78925379  0.51270672  0.25411854  1
  F  F18  1  0.70885279  0.51499923  0.50500598  1
  F  F19  1  0.78909442  0.51851744  0.75526273  1
  F  F20  1  0.53928603  0.73420159  0.00401583  1
  F  F21  1  0.46139524  0.76340391  0.25372856  1
  F  F22  1  0.53657130  0.76483186  0.50489752  1
  F  F23  1  0.45921509  0.76802060  0.75519896  1
  F  F24  1  0.20943440  0.98275380  0.00454374  1
  F  F25  1  0.29034833  0.01378055  0.25402826  1
  F  F26  1  0.21051023  0.01562232  0.50509260  1
  F  F27  1  0.28886698  0.01546681  0.75551750  1
  F  F28  1  0.70915109  0.98096566  0.00436934  1
  F  F29  1  0.78988943  0.01251110  0.25374436  1
  F  F30  1  0.70892637  0.01541702  0.50467947  1
  F  F31  1  0.78849100  0.01568191  0.75525830  1
  F  F32  1  0.09855376  0.09622554  0.14016526  1
  F  F33  1  0.11799366  0.10871527  0.34638603  1
  F  F34  1  0.15438576  0.14825043  0.63824250  1
  F  F35  1  0.10907686  0.11058275  0.85093763  1
  F  F36  1  0.60034522  0.09687242  0.14040268  1
  F  F37  1  0.61870980  0.10889337  0.34623486  1
  F  F38  1  0.65421237  0.14797017  0.63803351  1
  F  F39  1  0.60869371  0.10946554  0.85115201  1
  F  F40  1  0.38988848  0.38610114  0.09861777  1
  F  F41  1  0.40686798  0.39733050  0.38681095  1
  F  F42  1  0.36529629  0.35927689  0.59946427  1
  F  F43  1  0.39873117  0.39964435  0.89111608  1
  F  F44  1  0.09973522  0.59578602  0.14015058  1
  F  F45  1  0.11860670  0.60885243  0.34665378  1
  F  F46  1  0.15388271  0.64836652  0.63783305  1
  F  F47  1  0.11013082  0.61150139  0.85025426  1
  F  F48  1  0.88888353  0.38609293  0.09928433  1
  F  F49  1  0.90650027  0.39745073  0.38691538  1
  F  F50  1  0.86553110  0.35924316  0.59749512  1
  F  F51  1  0.90113947  0.40233728  0.89170681  1
  F  F52  1  0.60062211  0.59779261  0.14091854  1
  F  F53  1  0.61823766  0.60907183  0.34746945  1
  F  F54  1  0.65475961  0.64854713  0.63767847  1
  F  F55  1  0.60892094  0.60994468  0.85159026  1
  F  F56  1  0.38912942  0.88672217  0.10050951  1
  F  F57  1  0.40665423  0.89788265  0.38668261  1
  F  F58  1  0.36529155  0.85908997  0.59889637  1
  F  F59  1  0.39718986  0.89842411  0.89427930  1
  F  F60  1  0.88914820  0.88526486  0.09951327  1
  F  F61  1  0.90663346  0.89724609  0.38631492  1
  F  F62  1  0.86499064  0.85919276  0.59768007  1
  F  F63  1  0.90026680  0.90111328  0.89172495  1
  F  F64  1  0.86139715  0.13631070  0.09909706  1
  F  F65  1  0.84538287  0.14872098  0.38664706  1
  F  F66  1  0.88093564  0.10847246  0.59705424  1
  F  F67  1  0.84789496  0.15271887  0.89122444  1
  F  F68  1  0.36218207  0.13653711  0.09949771  1
  F  F69  1  0.34404914  0.14910716  0.38720064  1
  F  F70  1  0.38161322  0.10817387  0.59992188  1
  F  F71  1  0.34818229  0.14978825  0.89242424  1
  F  F72  1  0.15178846  0.34606412  0.13974144  1
  F  F73  1  0.13358562  0.36026730  0.34645592  1
  F  F74  1  0.09205588  0.39716933  0.63773820  1
  F  F75  1  0.13857789  0.36195991  0.84903748  1
  F  F76  1  0.86237155  0.63653093  0.09985366  1
  F  F77  1  0.84469332  0.64842208  0.38692569  1
  F  F78  1  0.88137425  0.60860450  0.59705873  1
  F  F79  1  0.84715587  0.65078370  0.89278101  1
  F  F80  1  0.65086261  0.34808669  0.14125173  1
  F  F81  1  0.63369918  0.35945152  0.34825416  1
  F  F82  1  0.59293372  0.39735617  0.63800475  1
  F  F83  1  0.63772229  0.36041995  0.85105145  1
  F  F84  1  0.36172496  0.63599942  0.09910676  1
  F  F85  1  0.34480240  0.64857253  0.38677800  1
  F  F86  1  0.38061307  0.60856612  0.59759475  1
  F  F87  1  0.35028404  0.65011704  0.89244081  1
  F  F88  1  0.15142561  0.84783108  0.14163646  1
  F  F89  1  0.13363228  0.85949917  0.34788617  1
  F  F90  1  0.09171957  0.89770550  0.63814518  1
  F  F91  1  0.13740934  0.86068918  0.85105889  1
  F  F92  1  0.64979423  0.84814278  0.14198375  1
  F  F93  1  0.63402627  0.85970656  0.34834302  1
  F  F94  1  0.59259748  0.89699776  0.63727358  1
  F  F95  1  0.63875001  0.86220596  0.85080679  1
  Pb  Pb96  1  0.00025271  0.24535168  0.12518823  1
  Pb  Pb97  1  0.00001566  0.25085422  0.37383172  1
  Pb  Pb98  1  0.99830950  0.25033851  0.62469524  1
  Pb  Pb99  1  0.99888356  0.25267072  0.87568562  1
  Pb  Pb100  1  0.50085634  0.24586641  0.12517773  1
  Pb  Pb101  1  0.49989877  0.25061727  0.37405457  1
  Pb  Pb102  1  0.49911286  0.25015003  0.62520012  1
  Pb  Pb103  1  0.49947689  0.25107405  0.87653687  1
  Pb  Pb104  1  0.25013372  0.49499036  0.12495428  1
  Pb  Pb105  1  0.25085476  0.50048125  0.37380815  1
  Pb  Pb106  1  0.24850307  0.50045297  0.62498240  1
  Pb  Pb107  1  0.24920719  0.50176346  0.87586625  1
  Pb  Pb108  1  0.00124214  0.74538801  0.12515520  1
  Pb  Pb109  1  0.00015301  0.75051754  0.37412722  1
  Pb  Pb110  1  0.99850839  0.75059135  0.62461369  1
  Pb  Pb111  1  0.99925867  0.75185574  0.87625605  1
  Pb  Pb112  1  0.74996563  0.49585157  0.12550871  1
  Pb  Pb113  1  0.75041429  0.50074895  0.37449822  1
  Pb  Pb114  1  0.74902571  0.50098099  0.62474752  1
  Pb  Pb115  1  0.74930243  0.50253602  0.87628904  1
  Pb  Pb116  1  0.50033941  0.74547423  0.12546926  1
  Pb  Pb117  1  0.49980213  0.75086788  0.37424088  1
  Pb  Pb118  1  0.49846370  0.75028747  0.62501349  1
  Pb  Pb119  1  0.49914301  0.75229756  0.87636376  1
  Pb  Pb120  1  0.24986716  0.99580627  0.12565850  1
  Pb  Pb121  1  0.25071717  0.00104379  0.37409270  1
  Pb  Pb122  1  0.24834395  0.00030339  0.62532083  1
  Pb  Pb123  1  0.24848050  0.00171005  0.87668237  1
  Pb  Pb124  1  0.74976924  0.99533240  0.12543175  1
  Pb  Pb125  1  0.75076781  0.00087282  0.37404229  1
  Pb  Pb126  1  0.74877324  0.00040582  0.62436756  1
  Pb  Pb127  1  0.74908584  0.00184087  0.87636422  1
  Rb  Rb128  1  0.99699345  0.01452110  0.00679870  1
  Rb  Rb129  1  0.00368281  0.98158389  0.25554975  1
  Rb  Rb130  1  0.99946948  0.98145819  0.50843712  1
  Rb  Rb131  1  0.99831690  0.98120031  0.76002354  1
  Rb  Rb132  1  0.49694438  0.01431762  0.00694563  1
  Rb  Rb133  1  0.50412866  0.98161757  0.25517722  1
  Rb  Rb134  1  0.49833912  0.98145548  0.50907726  1
  Rb  Rb135  1  0.49867179  0.98194207  0.75871468  1
  Rb  Rb136  1  0.25222733  0.26433326  0.00690317  1
  Rb  Rb137  1  0.24777449  0.23301255  0.25599619  1
  Rb  Rb138  1  0.24936687  0.23123762  0.50947034  1
  Rb  Rb139  1  0.24978101  0.23072205  0.75961789  1
  Rb  Rb140  1  0.99737655  0.51447003  0.00689697  1
  Rb  Rb141  1  0.00299248  0.48277200  0.25595261  1
  Rb  Rb142  1  0.99915335  0.48075627  0.50881155  1
  Rb  Rb143  1  0.99879072  0.48207978  0.75936382  1
  Rb  Rb144  1  0.75332535  0.26556173  0.00649790  1
  Rb  Rb145  1  0.74729417  0.23288921  0.25588739  1
  Rb  Rb146  1  0.74897462  0.23139293  0.50821224  1
  Rb  Rb147  1  0.74837419  0.23081462  0.75979997  1
  Rb  Rb148  1  0.49667309  0.51535724  0.00530382  1
  Rb  Rb149  1  0.50407148  0.48239261  0.25595136  1
  Rb  Rb150  1  0.49849877  0.48077289  0.50918284  1
  Rb  Rb151  1  0.49912451  0.48018247  0.76009533  1
  Rb  Rb152  1  0.25415855  0.76574829  0.00610370  1
  Rb  Rb153  1  0.24753118  0.73253480  0.25615113  1
  Rb  Rb154  1  0.24942983  0.73085382  0.50861709  1
  Rb  Rb155  1  0.24920028  0.73186191  0.75934102  1
  Rb  Rb156  1  0.75259650  0.76435935  0.00698891  1
  Rb  Rb157  1  0.74757850  0.73271710  0.25619615  1
  Rb  Rb158  1  0.74842554  0.73129696  0.50830828  1
  Rb  Rb159  1  0.74907371  0.73214477  0.75940867  1
