# generated using pymatgen
data_RbPbI3
_symmetry_space_group_name_H-M   'P 1'
_cell_length_a   18.01838469
_cell_length_b   18.01838469
_cell_length_c   25.48184300
_cell_angle_alpha   90.00000000
_cell_angle_beta   90.00000000
_cell_angle_gamma   90.00000000
_symmetry_Int_Tables_number   1
_chemical_formula_structural   RbPbI3
_chemical_formula_sum   'Rb32 Pb32 I96'
_cell_volume   8272.99087259
_cell_formula_units_Z   32
loop_
 _symmetry_equiv_pos_site_id
 _symmetry_equiv_pos_as_xyz
  1  'x, y, z'
loop_
 _atom_site_type_symbol
 _atom_site_label
 _atom_site_symmetry_multiplicity
 _atom_site_fract_x
 _atom_site_fract_y
 _atom_site_fract_z
 _atom_site_occupancy
  I  I0  1  0.09864245  0.15309294  0.97756312  1
  I  I1  1  0.08455830  0.16881035  0.26631667  1
  I  I2  1  0.14323246  0.10498847  0.46816773  1
  I  I3  1  0.10642644  0.14833744  0.76739707  1
  I  I4  1  0.60334375  0.14810412  0.97825301  1
  I  I5  1  0.60313833  0.14778175  0.27254321  1
  I  I6  1  0.65463941  0.08823180  0.47999587  1
  I  I7  1  0.61276141  0.14296517  0.77930582  1
  I  I8  1  0.40895829  0.33996271  0.01222849  1
  I  I9  1  0.39436708  0.35732462  0.23665301  1
  I  I10  1  0.35681884  0.39050416  0.53193942  1
  I  I11  1  0.41798734  0.33596652  0.73301977  1
  I  I12  1  0.10325987  0.64877453  0.98800412  1
  I  I13  1  0.10088619  0.65008498  0.27001004  1
  I  I14  1  0.15103610  0.59127893  0.48029187  1
  I  I15  1  0.11088758  0.64683458  0.77808482  1
  I  I16  1  0.90272123  0.34782683  0.01870916  1
  I  I17  1  0.88532985  0.36489078  0.21606234  1
  I  I18  1  0.83911420  0.40275202  0.51995138  1
  I  I19  1  0.90834382  0.35164202  0.72762403  1
  I  I20  1  0.60100004  0.64964809  0.98489239  1
  I  I21  1  0.58847029  0.66335703  0.26206641  1
  I  I22  1  0.64088542  0.60544348  0.46936173  1
  I  I23  1  0.60196031  0.65009560  0.77042376  1
  I  I24  1  0.40379297  0.84826035  0.02131558  1
  I  I25  1  0.38651184  0.86538687  0.21432422  1
  I  I26  1  0.33979178  0.90402816  0.51844007  1
  I  I27  1  0.40610380  0.85150215  0.72488009  1
  I  I28  1  0.90980283  0.84315181  0.01158736  1
  I  I29  1  0.89959871  0.85585589  0.23593851  1
  I  I30  1  0.85624100  0.89102435  0.53143033  1
  I  I31  1  0.91458116  0.83602981  0.73278387  1
  I  I32  1  0.84639626  0.09371469  0.01674750  1
  I  I33  1  0.84452975  0.10593674  0.23083311  1
  I  I34  1  0.90307676  0.14822698  0.52083475  1
  I  I35  1  0.86452890  0.10192030  0.71889236  1
  I  I36  1  0.34362728  0.09505794  0.98395092  1
  I  I37  1  0.35118320  0.11518320  0.28256509  1
  I  I38  1  0.39980593  0.15221766  0.47637684  1
  I  I39  1  0.35184485  0.09648066  0.76828118  1
  I  I40  1  0.14390768  0.39448094  0.03194270  1
  I  I41  1  0.14292383  0.40901554  0.23021786  1
  I  I42  1  0.09626167  0.34800203  0.52528754  1
  I  I43  1  0.15925108  0.40475384  0.72609809  1
  I  I44  1  0.85006034  0.60162043  0.97715433  1
  I  I45  1  0.84972625  0.61284522  0.28479623  1
  I  I46  1  0.89735236  0.65078685  0.47978139  1
  I  I47  1  0.85433689  0.60060467  0.77383343  1
  I  I48  1  0.65526555  0.40012964  0.97869315  1
  I  I49  1  0.63640239  0.39703617  0.28327426  1
  I  I50  1  0.59822153  0.34495078  0.47683386  1
  I  I51  1  0.66086855  0.39828739  0.76902451  1
  I  I52  1  0.35856082  0.60309479  0.02994910  1
  I  I53  1  0.34678367  0.60931381  0.22745886  1
  I  I54  1  0.40026751  0.64681802  0.52410312  1
  I  I55  1  0.35787069  0.59424263  0.72594590  1
  I  I56  1  0.15633833  0.90115571  0.98119637  1
  I  I57  1  0.14710155  0.90773580  0.27427598  1
  I  I58  1  0.09793121  0.84421764  0.47615228  1
  I  I59  1  0.16055862  0.89881088  0.76904567  1
  I  I60  1  0.65264807  0.90561417  0.01962430  1
  I  I61  1  0.64617418  0.90827980  0.23233647  1
  I  I62  1  0.59416133  0.84632911  0.52279031  1
  I  I63  1  0.65417536  0.89808936  0.72197539  1
  I  I64  1  0.04249602  0.01511106  0.12397405  1
  I  I65  1  0.95147823  0.99704092  0.37494578  1
  I  I66  1  0.05292983  0.99487360  0.62284875  1
  I  I67  1  0.96505957  0.98720403  0.87256136  1
  I  I68  1  0.49444785  0.04977402  0.12534441  1
  I  I69  1  0.49150532  0.95010584  0.37465245  1
  I  I70  1  0.50535356  0.04712541  0.62349733  1
  I  I71  1  0.52016383  0.96062945  0.87473948  1
  I  I72  1  0.24475396  0.20402220  0.12632922  1
  I  I73  1  0.24677281  0.30478597  0.37633610  1
  I  I74  1  0.24770099  0.19679545  0.62300358  1
  I  I75  1  0.26567568  0.28371370  0.87309294  1
  I  I76  1  0.98715938  0.54318192  0.12654760  1
  I  I77  1  0.99186323  0.45089443  0.37679391  1
  I  I78  1  0.00096791  0.54655899  0.62604662  1
  I  I79  1  0.03689372  0.45866867  0.87607000  1
  I  I80  1  0.70686641  0.25862828  0.12316799  1
  I  I81  1  0.79852272  0.25562291  0.37416094  1
  I  I82  1  0.70366050  0.24103783  0.62386709  1
  I  I83  1  0.79591589  0.22535556  0.87348091  1
  I  I84  1  0.54948869  0.49476992  0.12542697  1
  I  I85  1  0.44793491  0.50428410  0.37548482  1
  I  I86  1  0.55505800  0.49974379  0.62308123  1
  I  I87  1  0.46801320  0.49018224  0.87315697  1
  I  I88  1  0.20339430  0.76282316  0.12528719  1
  I  I89  1  0.29667685  0.75372205  0.37550849  1
  I  I90  1  0.20505820  0.74477129  0.62589857  1
  I  I91  1  0.29661569  0.72493739  0.87566232  1
  I  I92  1  0.76120015  0.70038429  0.12748331  1
  I  I93  1  0.74530908  0.80077941  0.37728728  1
  I  I94  1  0.74603937  0.69816284  0.62666468  1
  I  I95  1  0.75451416  0.78794511  0.87685617  1
  Pb  Pb96  1  0.99881155  0.99893074  0.00183304  1
  Pb  Pb97  1  0.00044349  0.00445083  0.25141945  1
  Pb  Pb98  1  0.00325053  0.00198855  0.49916721  1
  Pb  Pb99  1  0.99885505  0.99013658  0.74764340  1
  Pb  Pb100  1  0.50438803  0.99709146  0.99926418  1
  Pb  Pb101  1  0.49840087  0.00045105  0.24966206  1
  Pb  Pb102  1  0.50552106  0.99658888  0.49840410  1
  Pb  Pb103  1  0.51073967  0.99376252  0.74595937  1
  Pb  Pb104  1  0.25294752  0.24414558  0.00285900  1
  Pb  Pb105  1  0.24365702  0.24871574  0.25550672  1
  Pb  Pb106  1  0.25458509  0.25008351  0.50054780  1
  Pb  Pb107  1  0.25971037  0.24321244  0.74849154  1
  Pb  Pb108  1  0.00932062  0.49445869  0.99652658  1
  Pb  Pb109  1  0.99426478  0.50138762  0.24966383  1
  Pb  Pb110  1  0.00447459  0.49550402  0.49886362  1
  Pb  Pb111  1  0.01045766  0.49580294  0.74609919  1
  Pb  Pb112  1  0.75247516  0.24992941  0.99747142  1
  Pb  Pb113  1  0.75175704  0.25505693  0.25126716  1
  Pb  Pb114  1  0.74817769  0.25385695  0.50064296  1
  Pb  Pb115  1  0.75043202  0.24251730  0.75096317  1
  Pb  Pb116  1  0.49924988  0.49511907  0.00461549  1
  Pb  Pb117  1  0.49997902  0.50044734  0.25422466  1
  Pb  Pb118  1  0.50190214  0.50285447  0.50070122  1
  Pb  Pb119  1  0.50248226  0.49097224  0.74698594  1
  Pb  Pb120  1  0.25279364  0.75039977  0.99641294  1
  Pb  Pb121  1  0.24900388  0.75943337  0.24884198  1
  Pb  Pb122  1  0.24962305  0.75525438  0.49897214  1
  Pb  Pb123  1  0.24970002  0.74722881  0.75009297  1
  Pb  Pb124  1  0.75401653  0.74666469  0.00186386  1
  Pb  Pb125  1  0.74536837  0.74590558  0.25009816  1
  Pb  Pb126  1  0.75338389  0.75249301  0.49892272  1
  Pb  Pb127  1  0.75556881  0.74502713  0.74793376  1
  Rb  Rb128  1  0.03199830  0.24754461  0.12566129  1
  Rb  Rb129  1  0.01156147  0.23996137  0.40045302  1
  Rb  Rb130  1  0.02211697  0.21569773  0.63651531  1
  Rb  Rb131  1  0.99838934  0.25667025  0.86892283  1
  Rb  Rb132  1  0.49923072  0.26019811  0.13123464  1
  Rb  Rb133  1  0.47389007  0.27201687  0.36100588  1
  Rb  Rb134  1  0.49179445  0.25852336  0.59918046  1
  Rb  Rb135  1  0.48705871  0.27173367  0.87463621  1
  Rb  Rb136  1  0.20484320  0.54664026  0.12556693  1
  Rb  Rb137  1  0.23518158  0.51896669  0.34785402  1
  Rb  Rb138  1  0.23245857  0.52587658  0.61069526  1
  Rb  Rb139  1  0.24869470  0.50823626  0.84591768  1
  Rb  Rb140  1  0.99086030  0.75002751  0.12829513  1
  Rb  Rb141  1  0.96873784  0.76995811  0.36285992  1
  Rb  Rb142  1  0.99306067  0.76105992  0.59992119  1
  Rb  Rb143  1  0.97030161  0.75772250  0.87549130  1
  Rb  Rb144  1  0.77307497  0.47989409  0.10187802  1
  Rb  Rb145  1  0.77006251  0.47749326  0.38862413  1
  Rb  Rb146  1  0.77220404  0.48681680  0.65189257  1
  Rb  Rb147  1  0.70902506  0.54073017  0.87537996  1
  Rb  Rb148  1  0.48390291  0.70985287  0.12872352  1
  Rb  Rb149  1  0.51116701  0.73695715  0.39722527  1
  Rb  Rb150  1  0.52609909  0.72193411  0.63724289  1
  Rb  Rb151  1  0.50135670  0.75655317  0.87955535  1
  Rb  Rb152  1  0.26404910  0.98003223  0.10694438  1
  Rb  Rb153  1  0.27358600  0.97977729  0.38609684  1
  Rb  Rb154  1  0.26775439  0.98399432  0.64964184  1
  Rb  Rb155  1  0.21213403  0.03900225  0.87494605  1
  Rb  Rb156  1  0.71013684  0.04176695  0.12601229  1
  Rb  Rb157  1  0.73886255  0.01448089  0.34912854  1
  Rb  Rb158  1  0.73110561  0.02381335  0.61226156  1
  Rb  Rb159  1  0.73163089  0.01467026  0.89409342  1
