# generated using pymatgen
data_RbPbCl3
_symmetry_space_group_name_H-M   'P 1'
_cell_length_a   16.10909739
_cell_length_b   16.10909739
_cell_length_c   22.78170400
_cell_angle_alpha   90.00000000
_cell_angle_beta   90.00000000
_cell_angle_gamma   90.00000000
_symmetry_Int_Tables_number   1
_chemical_formula_structural   RbPbCl3
_chemical_formula_sum   'Rb32 Pb32 Cl96'
_cell_volume   5911.92095621
_cell_formula_units_Z   32
loop_
 _symmetry_equiv_pos_site_id
 _symmetry_equiv_pos_as_xyz
  1  'x, y, z'
loop_
 _atom_site_type_symbol
 _atom_site_label
 _atom_site_symmetry_multiplicity
 _atom_site_fract_x
 _atom_site_fract_y
 _atom_site_fract_z
 _atom_site_occupancy
  Cl  Cl0  1  0.15531247  0.09379474  0.01469748  1
  Cl  Cl1  1  0.10872582  0.14011214  0.21902121  1
  Cl  Cl2  1  0.15541783  0.09349127  0.51469788  1
  Cl  Cl3  1  0.10964494  0.14028098  0.71859041  1
  Cl  Cl4  1  0.63972485  0.10957497  0.03036621  1
  Cl  Cl5  1  0.59264392  0.15437375  0.23425961  1
  Cl  Cl6  1  0.63927995  0.10857247  0.53034705  1
  Cl  Cl7  1  0.59292751  0.15428128  0.73417524  1
  Cl  Cl8  1  0.34353941  0.40552977  0.98482417  1
  Cl  Cl9  1  0.38939303  0.35944947  0.28028345  1
  Cl  Cl10  1  0.34361935  0.40542743  0.48485652  1
  Cl  Cl11  1  0.39006923  0.35973675  0.78034232  1
  Cl  Cl12  1  0.13959436  0.60956408  0.03033851  1
  Cl  Cl13  1  0.09244686  0.65460793  0.23462745  1
  Cl  Cl14  1  0.13927351  0.60843400  0.53045407  1
  Cl  Cl15  1  0.09312251  0.65408137  0.73404325  1
  Cl  Cl16  1  0.85926710  0.39000389  0.96878159  1
  Cl  Cl17  1  0.90395155  0.34313340  0.26506276  1
  Cl  Cl18  1  0.85828064  0.38954518  0.46894907  1
  Cl  Cl19  1  0.90449978  0.34272691  0.76482603  1
  Cl  Cl20  1  0.65529354  0.59380088  0.01463190  1
  Cl  Cl21  1  0.60867829  0.64010404  0.21897498  1
  Cl  Cl22  1  0.65527169  0.59374939  0.51473653  1
  Cl  Cl23  1  0.60971259  0.64011636  0.71881838  1
  Cl  Cl24  1  0.35914127  0.89009565  0.96901283  1
  Cl  Cl25  1  0.40396253  0.84305052  0.26502959  1
  Cl  Cl26  1  0.35821147  0.88955787  0.46909188  1
  Cl  Cl27  1  0.40441785  0.84285189  0.76477075  1
  Cl  Cl28  1  0.84356198  0.90552558  0.98485042  1
  Cl  Cl29  1  0.88936751  0.85948255  0.28027529  1
  Cl  Cl30  1  0.84356598  0.90550747  0.48469788  1
  Cl  Cl31  1  0.89014232  0.85979750  0.78021336  1
  Cl  Cl32  1  0.89998900  0.15030187  0.01911398  1
  Cl  Cl33  1  0.84818503  0.09941427  0.22994930  1
  Cl  Cl34  1  0.90018114  0.15056763  0.51875336  1
  Cl  Cl35  1  0.84878124  0.09793488  0.72995963  1
  Cl  Cl36  1  0.40039168  0.15107458  0.97996742  1
  Cl  Cl37  1  0.34805471  0.09967473  0.26884555  1
  Cl  Cl38  1  0.40055847  0.15092350  0.48000249  1
  Cl  Cl39  1  0.34797589  0.09840782  0.76895538  1
  Cl  Cl40  1  0.09931561  0.35003168  0.01910668  1
  Cl  Cl41  1  0.14839953  0.40010471  0.22956281  1
  Cl  Cl42  1  0.09955091  0.34979891  0.51910639  1
  Cl  Cl43  1  0.14836333  0.39887108  0.72957849  1
  Cl  Cl44  1  0.90003576  0.65092002  0.97969680  1
  Cl  Cl45  1  0.84806137  0.59960368  0.26933294  1
  Cl  Cl46  1  0.90057203  0.65088987  0.47997596  1
  Cl  Cl47  1  0.84809428  0.59848628  0.76906263  1
  Cl  Cl48  1  0.59955125  0.34994512  0.97981206  1
  Cl  Cl49  1  0.64844412  0.39965598  0.26971679  1
  Cl  Cl50  1  0.59943759  0.34995400  0.48009336  1
  Cl  Cl51  1  0.64917868  0.39811892  0.77001966  1
  Cl  Cl52  1  0.39999029  0.65030743  0.01908263  1
  Cl  Cl53  1  0.34826173  0.59942446  0.22981222  1
  Cl  Cl54  1  0.40020277  0.65060452  0.51914835  1
  Cl  Cl55  1  0.34889948  0.59793209  0.73006901  1
  Cl  Cl56  1  0.09958556  0.84995445  0.97972240  1
  Cl  Cl57  1  0.14846361  0.89960055  0.26971508  1
  Cl  Cl58  1  0.09905261  0.84943686  0.47998674  1
  Cl  Cl59  1  0.14914809  0.89814382  0.76983340  1
  Cl  Cl60  1  0.59933941  0.85001564  0.01905889  1
  Cl  Cl61  1  0.64859668  0.90023871  0.22957769  1
  Cl  Cl62  1  0.59966453  0.84994092  0.51916501  1
  Cl  Cl63  1  0.64823898  0.89872308  0.72945108  1
  Cl  Cl64  1  0.99457545  0.95491515  0.12491741  1
  Cl  Cl65  1  0.00505566  0.04472667  0.37487722  1
  Cl  Cl66  1  0.99382080  0.95442062  0.62479678  1
  Cl  Cl67  1  0.00443147  0.04387106  0.87479308  1
  Cl  Cl68  1  0.45431715  0.99399352  0.12462314  1
  Cl  Cl69  1  0.54396447  0.00519584  0.37466130  1
  Cl  Cl70  1  0.45455479  -0.00577824  0.62465366  1
  Cl  Cl71  1  0.54432690  0.00512637  0.87466444  1
  Cl  Cl72  1  0.29399676  0.25487232  0.12466335  1
  Cl  Cl73  1  0.20483457  0.24459501  0.37467917  1
  Cl  Cl74  1  0.29395681  0.25458981  0.62466178  1
  Cl  Cl75  1  0.20432619  0.24354733  0.87461855  1
  Cl  Cl76  1  0.95452992  0.49447079  0.12473310  1
  Cl  Cl77  1  0.04411843  0.50481986  0.37480455  1
  Cl  Cl78  1  0.95453448  0.49373919  0.62476073  1
  Cl  Cl79  1  0.04460704  0.50537197  0.87474595  1
  Cl  Cl80  1  0.75516784  0.29488308  0.12474333  1
  Cl  Cl81  1  0.74314375  0.20485649  0.37473717  1
  Cl  Cl82  1  0.75486759  0.29436426  0.62473948  1
  Cl  Cl83  1  0.74379113  0.20458381  0.87480080  1
  Cl  Cl84  1  0.49411227  0.45475622  0.12493505  1
  Cl  Cl85  1  0.50464642  0.54417742  0.37494951  1
  Cl  Cl86  1  0.49371002  0.45416018  0.62488442  1
  Cl  Cl87  1  0.50426850  0.54380566  0.87483757  1
  Cl  Cl88  1  0.25476055  0.79446876  0.12478801  1
  Cl  Cl89  1  0.24406527  0.70464091  0.37481636  1
  Cl  Cl90  1  0.25467813  0.79417077  0.62480746  1
  Cl  Cl91  1  0.24391024  0.70464772  0.87480887  1
  Cl  Cl92  1  0.79400730  0.75439742  0.12422032  1
  Cl  Cl93  1  0.70429679  0.74411012  0.37421605  1
  Cl  Cl94  1  0.79386909  0.75457875  0.62415710  1
  Cl  Cl95  1  0.70409121  0.74392875  0.87414049  1
  Pb  Pb96  1  -0.00036786  -0.00015408  -0.00019859  1
  Pb  Pb97  1  0.99956379  -0.00000492  0.24975262  1
  Pb  Pb98  1  0.99969176  -0.00008562  0.49976203  1
  Pb  Pb99  1  -0.00209178  0.99813133  0.74971827  1
  Pb  Pb100  1  0.49964080  -0.00003980  -0.00022647  1
  Pb  Pb101  1  0.49966381  0.00016736  0.24968910  1
  Pb  Pb102  1  0.49971058  0.00005177  0.49982840  1
  Pb  Pb103  1  0.49948461  -0.00008405  0.74969519  1
  Pb  Pb104  1  0.24983207  0.24971237  -0.00032983  1
  Pb  Pb105  1  0.24966038  0.24981100  0.24980077  1
  Pb  Pb106  1  0.24982454  0.24976661  0.49978192  1
  Pb  Pb107  1  0.24788804  0.24806985  0.74942325  1
  Pb  Pb108  1  -0.00033855  0.49993655  0.99968578  1
  Pb  Pb109  1  0.99963297  0.50018509  0.24975942  1
  Pb  Pb110  1  -0.00025289  0.50009622  0.49985864  1
  Pb  Pb111  1  -0.00039542  0.49989061  0.74974884  1
  Pb  Pb112  1  0.74969908  0.24997967  -0.00019955  1
  Pb  Pb113  1  0.74993139  0.24963360  0.24977430  1
  Pb  Pb114  1  0.74974946  0.25015967  0.49968804  1
  Pb  Pb115  1  0.74983582  0.24963804  0.74983718  1
  Pb  Pb116  1  0.49965245  0.49985380  -0.00025185  1
  Pb  Pb117  1  0.49951595  0.49992268  0.24969575  1
  Pb  Pb118  1  0.49967901  0.49989312  0.49985394  1
  Pb  Pb119  1  0.49795005  0.49799926  0.74979243  1
  Pb  Pb120  1  0.24969635  0.74996196  -0.00023753  1
  Pb  Pb121  1  0.24987178  0.74959453  0.24978878  1
  Pb  Pb122  1  0.24974464  0.74995200  0.49970271  1
  Pb  Pb123  1  0.24983531  0.74963339  0.74980484  1
  Pb  Pb124  1  0.74989071  0.74967734  -0.00030639  1
  Pb  Pb125  1  0.74954921  0.74969819  0.24993682  1
  Pb  Pb126  1  0.74986005  0.74980148  0.49968861  1
  Pb  Pb127  1  0.74792436  0.74799780  0.74943866  1
  Rb  Rb128  1  0.98149018  0.26881918  0.13366664  1
  Rb  Rb129  1  0.99075577  0.25908204  0.39290623  1
  Rb  Rb130  1  0.98177017  0.26830631  0.63347511  1
  Rb  Rb131  1  0.99028641  0.25819544  0.89284970  1
  Rb  Rb132  1  0.50809905  0.24074919  0.10631062  1
  Rb  Rb133  1  0.51811396  0.23246212  0.36546201  1
  Rb  Rb134  1  0.50836083  0.24032000  0.60625866  1
  Rb  Rb135  1  0.51849798  0.23223526  0.86549675  1
  Rb  Rb136  1  0.26682832  0.48143267  0.11558377  1
  Rb  Rb137  1  0.25833430  0.49058129  0.35679281  1
  Rb  Rb138  1  0.26670435  0.48065745  0.61595518  1
  Rb  Rb139  1  0.25853266  0.49034404  0.85672211  1
  Rb  Rb140  1  0.00826286  0.74071024  0.10647722  1
  Rb  Rb141  1  0.01769362  0.73251519  0.36547741  1
  Rb  Rb142  1  0.00851765  0.74059182  0.60623987  1
  Rb  Rb143  1  0.01837823  0.73213361  0.86533150  1
  Rb  Rb144  1  0.74025711  0.50925584  0.14258907  1
  Rb  Rb145  1  0.73053497  0.51727841  0.38351397  1
  Rb  Rb146  1  0.74019966  0.50815336  0.64256295  1
  Rb  Rb147  1  0.73059541  0.51698685  0.88353241  1
  Rb  Rb148  1  0.48134220  0.76858207  0.13361640  1
  Rb  Rb149  1  0.49000912  0.75845668  0.39294760  1
  Rb  Rb150  1  0.48229118  0.76836606  0.63376030  1
  Rb  Rb151  1  0.49032424  0.75846857  0.89276471  1
  Rb  Rb152  1  0.23982915  0.00875682  0.14252874  1
  Rb  Rb153  1  0.23092654  0.01756446  0.38340008  1
  Rb  Rb154  1  0.24022569  0.00806751  0.64253461  1
  Rb  Rb155  1  0.23054220  0.01683676  0.88352302  1
  Rb  Rb156  1  0.76680184  0.98160184  0.11563049  1
  Rb  Rb157  1  0.75797465  0.99086639  0.35659606  1
  Rb  Rb158  1  0.76656561  0.98045662  0.61570103  1
  Rb  Rb159  1  0.75823764  0.99002897  0.85661240  1
