# generated using pymatgen
data_RbPbBr3
_symmetry_space_group_name_H-M   'P 1'
_cell_length_a   16.87792045
_cell_length_b   16.87792045
_cell_length_c   23.86898400
_cell_angle_alpha   90.00000000
_cell_angle_beta   90.00000000
_cell_angle_gamma   90.00000000
_symmetry_Int_Tables_number   1
_chemical_formula_structural   RbPbBr3
_chemical_formula_sum   'Rb32 Pb32 Br96'
_cell_volume   6799.41899846
_cell_formula_units_Z   32
loop_
 _symmetry_equiv_pos_site_id
 _symmetry_equiv_pos_as_xyz
  1  'x, y, z'
loop_
 _atom_site_type_symbol
 _atom_site_label
 _atom_site_symmetry_multiplicity
 _atom_site_fract_x
 _atom_site_fract_y
 _atom_site_fract_z
 _atom_site_occupancy
  Br  Br0  1  0.09616169  0.16018883  0.98183587  1
  Br  Br1  1  0.13251991  0.11731869  0.28350346  1
  Br  Br2  1  0.14204707  0.10906334  0.47222784  1
  Br  Br3  1  0.14592320  0.10800454  0.77750433  1
  Br  Br4  1  0.60833987  0.14274543  0.97045347  1
  Br  Br5  1  0.64453867  0.10544211  0.26041431  1
  Br  Br6  1  0.65546283  0.09185775  0.49528108  1
  Br  Br7  1  0.66170543  0.08543937  0.75932750  1
  Br  Br8  1  0.41021096  0.34628657  0.01820433  1
  Br  Br9  1  0.35472227  0.39394184  0.22499993  1
  Br  Br10  1  0.36353614  0.38664701  0.52917162  1
  Br  Br11  1  0.36653109  0.38680284  0.71777231  1
  Br  Br12  1  0.10945071  0.64206386  0.97032463  1
  Br  Br13  1  0.14325112  0.60480483  0.25840973  1
  Br  Br14  1  0.15714056  0.58932607  0.49929874  1
  Br  Br15  1  0.16067067  0.58849110  0.76214909  1
  Br  Br16  1  0.89268104  0.35799200  0.02915207  1
  Br  Br17  1  0.83459515  0.41358924  0.23907736  1
  Br  Br18  1  0.84237110  0.40469666  0.50380252  1
  Br  Br19  1  0.85253507  0.39345061  0.74002068  1
  Br  Br20  1  0.59765254  0.65889434  0.98238909  1
  Br  Br21  1  0.62688988  0.62099135  0.28507631  1
  Br  Br22  1  0.64212195  0.60761342  0.47665128  1
  Br  Br23  1  0.64535437  0.60728245  0.77547885  1
  Br  Br24  1  0.39210061  0.85948699  0.02952705  1
  Br  Br25  1  0.33868732  0.91095863  0.23766784  1
  Br  Br26  1  0.34303936  0.90290752  0.49948711  1
  Br  Br27  1  0.35107474  0.89747505  0.73870382  1
  Br  Br28  1  0.90963359  0.84668757  0.01833233  1
  Br  Br29  1  0.85460931  0.89440746  0.22500487  1
  Br  Br30  1  0.85813251  0.89322747  0.52687561  1
  Br  Br31  1  0.87400312  0.87971288  0.71551655  1
  Br  Br32  1  0.85018120  0.10063441  0.02164770  1
  Br  Br33  1  0.88716981  0.14845284  0.22069919  1
  Br  Br34  1  0.89787954  0.14285322  0.52588418  1
  Br  Br35  1  0.89933989  0.13732213  0.72894801  1
  Br  Br36  1  0.34884370  0.10129492  0.97669919  1
  Br  Br37  1  0.39089015  0.15198851  0.27043072  1
  Br  Br38  1  0.39213353  0.14502109  0.47278538  1
  Br  Br39  1  0.40351400  0.14661048  0.77093230  1
  Br  Br40  1  0.15286830  0.40363289  0.02073225  1
  Br  Br41  1  0.09785463  0.35835781  0.22256939  1
  Br  Br42  1  0.09302891  0.34366554  0.51662811  1
  Br  Br43  1  0.10169576  0.34388815  0.73399123  1
  Br  Br44  1  0.85072783  0.60167868  0.97897110  1
  Br  Br45  1  0.89290154  0.65513205  0.26489350  1
  Br  Br46  1  0.89996544  0.65298167  0.48273532  1
  Br  Br47  1  0.89376747  0.63648800  0.78136277  1
  Br  Br48  1  0.65374079  0.40353875  0.97901645  1
  Br  Br49  1  0.59659588  0.36013198  0.27148194  1
  Br  Br50  1  0.60594208  0.35220565  0.47247768  1
  Br  Br51  1  0.60765985  0.34784501  0.77844981  1
  Br  Br52  1  0.35114955  0.60112028  0.02087948  1
  Br  Br53  1  0.38489592  0.64692760  0.21741979  1
  Br  Br54  1  0.39865872  0.64296025  0.52566505  1
  Br  Br55  1  0.40168539  0.64098259  0.72913418  1
  Br  Br56  1  0.15214346  0.90330554  0.97991411  1
  Br  Br57  1  0.09325787  0.85522076  0.26647087  1
  Br  Br58  1  0.09529538  0.84214053  0.48271809  1
  Br  Br59  1  0.11195864  0.85125049  0.78339529  1
  Br  Br60  1  0.65142401  0.90355224  0.01935991  1
  Br  Br61  1  0.60367983  0.86397323  0.21612996  1
  Br  Br62  1  0.59284197  0.84405781  0.51627782  1
  Br  Br63  1  0.60213068  0.84406720  0.73435562  1
  Br  Br64  1  0.04560412  0.00958068  0.12507269  1
  Br  Br65  1  0.94975684  0.00052691  0.37550020  1
  Br  Br66  1  0.05178442  0.99697902  0.62434059  1
  Br  Br67  1  0.95443438  0.99335672  0.87460543  1
  Br  Br68  1  0.49572100  0.05138336  0.12240622  1
  Br  Br69  1  0.50585358  0.95850453  0.37121681  1
  Br  Br70  1  0.48334661  0.03635350  0.62288222  1
  Br  Br71  1  0.49860492  0.95467703  0.87428373  1
  Br  Br72  1  0.24156010  0.20406585  0.12485976  1
  Br  Br73  1  0.24428377  0.30006058  0.37538499  1
  Br  Br74  1  0.25365650  0.20015041  0.62463998  1
  Br  Br75  1  0.25975232  0.29619292  0.87501205  1
  Br  Br76  1  0.99464199  0.54673132  0.12355614  1
  Br  Br77  1  0.01060128  0.46300915  0.37413247  1
  Br  Br78  1  0.98446635  0.53758541  0.62602517  1
  Br  Br79  1  0.00189996  0.45123347  0.87577931  1
  Br  Br80  1  0.70196110  0.25473409  0.12460771  1
  Br  Br81  1  0.79289068  0.24443252  0.37467871  1
  Br  Br82  1  0.70801882  0.25249397  0.62573801  1
  Br  Br83  1  0.79714127  0.24330923  0.87601891  1
  Br  Br84  1  0.54737440  0.50617634  0.12578223  1
  Br  Br85  1  0.45004022  0.50466767  0.37639519  1
  Br  Br86  1  0.55062426  0.49416763  0.62549047  1
  Br  Br87  1  0.45489023  0.49349422  0.87542982  1
  Br  Br88  1  0.20220241  0.75475969  0.12420415  1
  Br  Br89  1  0.28858038  0.73113577  0.37479376  1
  Br  Br90  1  0.21076096  0.75398368  0.62637056  1
  Br  Br91  1  0.30023476  0.74686278  0.87616973  1
  Br  Br92  1  0.74112094  0.70442206  0.12497757  1
  Br  Br93  1  0.74774115  0.79894229  0.37544665  1
  Br  Br94  1  0.75276683  0.70241668  0.62537659  1
  Br  Br95  1  0.75663714  0.79772617  0.87530436  1
  Pb  Pb96  1  0.00016369  0.99866568  0.00069971  1
  Pb  Pb97  1  0.99758034  0.00540893  0.24957019  1
  Pb  Pb98  1  0.00032727  0.99929143  0.49975279  1
  Pb  Pb99  1  0.00343857  0.99021686  0.75152715  1
  Pb  Pb100  1  0.49976182  0.00101772  0.99962273  1
  Pb  Pb101  1  0.49629879  0.00008385  0.24664966  1
  Pb  Pb102  1  0.50131410  0.99756869  0.49944984  1
  Pb  Pb103  1  0.50512316  0.99564533  0.74972078  1
  Pb  Pb104  1  0.24816641  0.24971365  0.99953010  1
  Pb  Pb105  1  0.24153166  0.25318194  0.24767074  1
  Pb  Pb106  1  0.24932229  0.24950364  0.50029911  1
  Pb  Pb107  1  0.25539505  0.24706872  0.75227672  1
  Pb  Pb108  1  0.00069695  0.49960334  0.99972485  1
  Pb  Pb109  1  0.99281328  0.50191164  0.24879492  1
  Pb  Pb110  1  0.00022232  0.49786512  0.50052084  1
  Pb  Pb111  1  0.00507359  0.49636289  0.75059443  1
  Pb  Pb112  1  0.75015037  0.25009007  0.00003177  1
  Pb  Pb113  1  0.74909948  0.25412838  0.24816687  1
  Pb  Pb114  1  0.74950058  0.24991444  0.49921639  1
  Pb  Pb115  1  0.74961498  0.24475222  0.75143550  1
  Pb  Pb116  1  0.50137284  0.49750910  0.00063195  1
  Pb  Pb117  1  0.49577864  0.50879861  0.24896387  1
  Pb  Pb118  1  0.50002989  0.49780671  0.50178942  1
  Pb  Pb119  1  0.50241002  0.49269566  0.75210490  1
  Pb  Pb120  1  0.25062469  0.75021728  0.99964894  1
  Pb  Pb121  1  0.24709336  0.75485395  0.24838537  1
  Pb  Pb122  1  0.24704033  0.74928222  0.49821991  1
  Pb  Pb123  1  0.25029824  0.74665689  0.75185653  1
  Pb  Pb124  1  0.74854187  0.75044529  0.99957935  1
  Pb  Pb125  1  0.74261140  0.75239460  0.24812609  1
  Pb  Pb126  1  0.75026292  0.74988138  0.49952635  1
  Pb  Pb127  1  0.75727528  0.74673379  0.75196066  1
  Rb  Rb128  1  0.01697163  0.22985278  0.11351503  1
  Rb  Rb129  1  0.02038485  0.24514526  0.38492127  1
  Rb  Rb130  1  0.03639821  0.21355125  0.62764372  1
  Rb  Rb131  1  0.00929806  0.23758417  0.85307935  1
  Rb  Rb132  1  0.48974782  0.26390639  0.14795375  1
  Rb  Rb133  1  0.46102138  0.28744668  0.37296187  1
  Rb  Rb134  1  0.48024850  0.25471138  0.62867211  1
  Rb  Rb135  1  0.47890095  0.26602108  0.88666148  1
  Rb  Rb136  1  0.23099720  0.52341087  0.13536619  1
  Rb  Rb137  1  0.23537663  0.51373611  0.37336508  1
  Rb  Rb138  1  0.26717185  0.53499525  0.62799589  1
  Rb  Rb139  1  0.24021823  0.51169873  0.89509033  1
  Rb  Rb140  1  0.98844710  0.76020689  0.14736782  1
  Rb  Rb141  1  0.96359970  0.78278948  0.37232470  1
  Rb  Rb142  1  0.98695949  0.75759927  0.60624012  1
  Rb  Rb143  1  0.97882528  0.76590899  0.88765630  1
  Rb  Rb144  1  0.76324427  0.49050227  0.10447608  1
  Rb  Rb145  1  0.73388595  0.46727135  0.37350466  1
  Rb  Rb146  1  0.76516293  0.49122670  0.62564387  1
  Rb  Rb147  1  0.77417796  0.48284814  0.86408500  1
  Rb  Rb148  1  0.51719548  0.73035538  0.11238229  1
  Rb  Rb149  1  0.50851122  0.73567409  0.39431804  1
  Rb  Rb150  1  0.53823738  0.71307468  0.62750595  1
  Rb  Rb151  1  0.51315586  0.74012481  0.85402045  1
  Rb  Rb152  1  0.26017550  0.98878405  0.10496142  1
  Rb  Rb153  1  0.28523450  0.01740691  0.37157018  1
  Rb  Rb154  1  0.26462176  0.98784960  0.62152512  1
  Rb  Rb155  1  0.26965869  0.97702945  0.86471740  1
  Rb  Rb156  1  0.72890348  0.02031431  0.13584265  1
  Rb  Rb157  1  0.73808940  0.01049399  0.37316492  1
  Rb  Rb158  1  0.76797611  0.03339781  0.62666695  1
  Rb  Rb159  1  0.74055519  0.01388019  0.89477949  1
