# generated using pymatgen
data_RbSnF3
_symmetry_space_group_name_H-M   'P 1'
_cell_length_a   13.39487366
_cell_length_b   13.39487366
_cell_length_c   18.94321100
_cell_angle_alpha   90.00000000
_cell_angle_beta   90.00000000
_cell_angle_gamma   90.00000000
_symmetry_Int_Tables_number   1
_chemical_formula_structural   RbSnF3
_chemical_formula_sum   'Rb32 Sn32 F96'
_cell_volume   3398.84093600
_cell_formula_units_Z   32
loop_
 _symmetry_equiv_pos_site_id
 _symmetry_equiv_pos_as_xyz
  1  'x, y, z'
loop_
 _atom_site_type_symbol
 _atom_site_label
 _atom_site_symmetry_multiplicity
 _atom_site_fract_x
 _atom_site_fract_y
 _atom_site_fract_z
 _atom_site_occupancy
  F  F0  1  0.96347678  0.26210875  0.97769780  1
  F  F1  1  0.00478747  0.20606702  0.23196906  1
  F  F2  1  0.05483329  0.32258238  0.48953353  1
  F  F3  1  0.02830979  0.19912580  0.73085916  1
  F  F4  1  0.43805255  0.31687029  0.98839591  1
  F  F5  1  0.45818610  0.18578809  0.22985918  1
  F  F6  1  0.53685014  0.25409855  0.47582604  1
  F  F7  1  0.48822821  0.21004853  0.73233524  1
  F  F8  1  0.19942149  0.45993133  0.97890395  1
  F  F9  1  0.24144113  0.54822126  0.23419679  1
  F  F10  1  0.30131558  0.45629447  0.47919842  1
  F  F11  1  0.25938472  0.54700470  0.73275929  1
  F  F12  1  0.94368978  0.82031309  0.97998295  1
  F  F13  1  0.96899195  0.69504184  0.21718984  1
  F  F14  1  0.04614176  0.77197384  0.46729316  1
  F  F15  1  0.99220056  0.69719390  0.72748900  1
  F  F16  1  0.77081774  0.44417413  0.02513863  1
  F  F17  1  0.75293567  0.50481256  0.27840141  1
  F  F18  1  0.72485894  0.44837637  0.52545956  1
  F  F19  1  0.74987595  0.50770534  0.77920243  1
  F  F20  1  0.45968169  0.76700520  0.96840303  1
  F  F21  1  0.50932052  0.70176677  0.22625560  1
  F  F22  1  0.56511676  0.81738055  0.48062081  1
  F  F23  1  0.53732641  0.69700994  0.71779575  1
  F  F24  1  0.26110559  0.96825043  0.98412267  1
  F  F25  1  0.22521035  0.02624581  0.23288095  1
  F  F26  1  0.24862001  0.96780021  0.48213942  1
  F  F27  1  0.26879313  0.02446065  0.73268364  1
  F  F28  1  0.69310096  0.95727872  0.97568615  1
  F  F29  1  0.73533744  0.04870993  0.23118239  1
  F  F30  1  0.81243926  0.95395089  0.47656105  1
  F  F31  1  0.76958608  0.05376298  0.73103946  1
  F  F32  1  0.11047367  0.06680799  0.10376736  1
  F  F33  1  0.13461274  0.16702001  0.39701580  1
  F  F34  1  0.16044689  0.18947319  0.61073596  1
  F  F35  1  0.04298874  0.11330195  0.88489168  1
  F  F36  1  0.59537189  0.06346116  0.11606665  1
  F  F37  1  0.68592080  0.10077123  0.40827107  1
  F  F38  1  0.62018089  0.16237454  0.61897892  1
  F  F39  1  0.56340420  0.15559703  0.93216070  1
  F  F40  1  0.40472990  0.37692292  0.17537617  1
  F  F41  1  0.39141232  0.30735528  0.36982453  1
  F  F42  1  0.34103701  0.37414204  0.66601288  1
  F  F43  1  0.32283846  0.40083015  0.85744974  1
  F  F44  1  0.11178187  0.57526335  0.11654023  1
  F  F45  1  0.19113267  0.60708940  0.40310490  1
  F  F46  1  0.12947182  0.67109097  0.60948034  1
  F  F47  1  0.06696639  0.65838491  0.92971544  1
  F  F48  1  0.91338679  0.37189687  0.15474287  1
  F  F49  1  0.81380168  0.35117530  0.38223364  1
  F  F50  1  0.82985840  0.36755032  0.65236563  1
  F  F51  1  0.88768884  0.43990101  0.88286467  1
  F  F52  1  0.60809767  0.55959732  0.10536591  1
  F  F53  1  0.64532277  0.66975840  0.37662369  1
  F  F54  1  0.65519097  0.67583814  0.58833007  1
  F  F55  1  0.54432324  0.61236042  0.87725365  1
  F  F56  1  0.42230173  0.86657109  0.15014179  1
  F  F57  1  0.31693517  0.85638426  0.36080051  1
  F  F58  1  0.33263758  0.86900988  0.63632247  1
  F  F59  1  0.39269188  0.94395839  0.86320668  1
  F  F60  1  0.89825746  0.86769935  0.14743242  1
  F  F61  1  0.90659013  0.82837956  0.35550673  1
  F  F62  1  0.84313654  0.87060588  0.67011306  1
  F  F63  1  0.82254369  0.90119512  0.85637393  1
  F  F64  1  0.87422373  0.16421445  0.11598119  1
  F  F65  1  0.92754388  0.15990580  0.43755293  1
  F  F66  1  0.91368832  0.05899759  0.61731769  1
  F  F67  1  0.80974616  0.10692287  0.90511564  1
  F  F68  1  0.32357358  0.20127992  0.11171675  1
  F  F69  1  0.46004206  0.10026209  0.38386045  1
  F  F70  1  0.38394953  0.07404088  0.60571401  1
  F  F71  1  0.35469921  0.17043649  0.88935913  1
  F  F72  1  0.15172963  0.37774584  0.16897177  1
  F  F73  1  0.17329914  0.40136670  0.35821173  1
  F  F74  1  0.09166157  0.37892998  0.66432409  1
  F  F75  1  0.10112869  0.32135636  0.86647648  1
  F  F76  1  0.86325926  0.66314318  0.08284295  1
  F  F77  1  0.95539435  0.62065674  0.37906132  1
  F  F78  1  0.88690629  0.56612581  0.60345728  1
  F  F79  1  0.86240214  0.67329626  0.87698323  1
  F  F80  1  0.66961923  0.36334155  0.15221181  1
  F  F81  1  0.61303468  0.43777516  0.38180480  1
  F  F82  1  0.58382491  0.37211164  0.65454018  1
  F  F83  1  0.68379322  0.35619936  0.88211858  1
  F  F84  1  0.37732337  0.66402472  0.10828365  1
  F  F85  1  0.43904278  0.65768378  0.42791005  1
  F  F86  1  0.39235351  0.57078344  0.61650303  1
  F  F87  1  0.31345453  0.60792458  0.90128521  1
  F  F88  1  0.17657768  0.86704545  0.13598584  1
  F  F89  1  0.11381870  0.93983644  0.36267250  1
  F  F90  1  0.08369417  0.86775560  0.66291932  1
  F  F91  1  0.19625554  0.84785573  0.86585587  1
  F  F92  1  0.66002557  0.86881545  0.16641214  1
  F  F93  1  0.68579530  0.89494424  0.35566533  1
  F  F94  1  0.59893293  0.87591231  0.64693616  1
  F  F95  1  0.60536353  0.81893133  0.86088945  1
  Rb  Rb96  1  0.95483074  0.02538548  0.00292609  1
  Rb  Rb97  1  0.01490381  0.99471313  0.23553818  1
  Rb  Rb98  1  0.02459512  0.99261361  0.49565257  1
  Rb  Rb99  1  0.97866687  0.99895592  0.75791355  1
  Rb  Rb100  1  0.48097905  0.98659588  0.99926566  1
  Rb  Rb101  1  0.52448291  0.99074250  0.25396940  1
  Rb  Rb102  1  0.54218737  0.02164532  0.50754004  1
  Rb  Rb103  1  0.48244245  0.99949247  0.73465255  1
  Rb  Rb104  1  0.21682892  0.25048540  0.98668008  1
  Rb  Rb105  1  0.25362929  0.24309769  0.25999180  1
  Rb  Rb106  1  0.27447837  0.24906850  0.49172084  1
  Rb  Rb107  1  0.23617911  0.24340361  0.75807100  1
  Rb  Rb108  1  0.98662568  0.49194061  0.00768513  1
  Rb  Rb109  1  0.02130406  0.49948620  0.25469346  1
  Rb  Rb110  1  0.04227340  0.53066801  0.50002432  1
  Rb  Rb111  1  0.96874058  0.49409324  0.74987661  1
  Rb  Rb112  1  0.72831039  0.24125341  0.01044245  1
  Rb  Rb113  1  0.78346219  0.25490098  0.24973776  1
  Rb  Rb114  1  0.75945130  0.24353088  0.51052579  1
  Rb  Rb115  1  0.71395921  0.25814822  0.75018380  1
  Rb  Rb116  1  0.45669337  0.52497324  0.99814043  1
  Rb  Rb117  1  0.53288964  0.49822851  0.25086612  1
  Rb  Rb118  1  0.51190457  0.48823763  0.50586919  1
  Rb  Rb119  1  0.47592250  0.49873026  0.75325216  1
  Rb  Rb120  1  0.23845654  0.75078842  0.00200897  1
  Rb  Rb121  1  0.28308861  0.75218501  0.23562932  1
  Rb  Rb122  1  0.26920400  0.75263242  0.49965268  1
  Rb  Rb123  1  0.22787682  0.75176581  0.73756139  1
  Rb  Rb124  1  0.73238532  0.75401920  0.98258786  1
  Rb  Rb125  1  0.77087615  0.73906295  0.25582353  1
  Rb  Rb126  1  0.78247065  0.74981788  0.48036121  1
  Rb  Rb127  1  0.73723610  0.73682145  0.75653695  1
  Sn  Sn128  1  0.00773028  0.25051618  0.12499603  1
  Sn  Sn129  1  0.01568961  0.26973569  0.38854937  1
  Sn  Sn130  1  0.01590896  0.25090767  0.62506806  1
  Sn  Sn131  1  0.96175333  0.24617966  0.86651719  1
  Sn  Sn132  1  0.47181012  0.25014382  0.12811008  1
  Sn  Sn133  1  0.53251539  0.23714296  0.36507913  1
  Sn  Sn134  1  0.48809325  0.25158190  0.62495668  1
  Sn  Sn135  1  0.47685409  0.26954503  0.88583022  1
  Sn  Sn136  1  0.24568203  0.49233235  0.12985338  1
  Sn  Sn137  1  0.29528426  0.49801595  0.37120606  1
  Sn  Sn138  1  0.25415100  0.49465181  0.62752863  1
  Sn  Sn139  1  0.20413082  0.50220468  0.87107186  1
  Sn  Sn140  1  0.99058307  0.74690747  0.11215531  1
  Sn  Sn141  1  0.04328089  0.74889080  0.35738258  1
  Sn  Sn142  1  0.99264944  0.75124024  0.62384647  1
  Sn  Sn143  1  0.98527740  0.77076423  0.87835066  1
  Sn  Sn144  1  0.75195797  0.49535102  0.13039501  1
  Sn  Sn145  1  0.75716786  0.49836607  0.39065816  1
  Sn  Sn146  1  0.74589373  0.49950137  0.63088168  1
  Sn  Sn147  1  0.74351541  0.50137617  0.89140744  1
  Sn  Sn148  1  0.51419541  0.74502519  0.11964557  1
  Sn  Sn149  1  0.52421597  0.77002352  0.37848895  1
  Sn  Sn150  1  0.51881043  0.74777547  0.61211816  1
  Sn  Sn151  1  0.46496981  0.74613491  0.85818368  1
  Sn  Sn152  1  0.25394857  0.00368551  0.12210311  1
  Sn  Sn153  1  0.25847288  0.00240786  0.37148047  1
  Sn  Sn154  1  0.24481278  0.99987652  0.62190110  1
  Sn  Sn155  1  0.24565463  0.99800946  0.87317736  1
  Sn  Sn156  1  0.73687617  0.99474687  0.12634354  1
  Sn  Sn157  1  0.79759258  0.00298496  0.37105988  1
  Sn  Sn158  1  0.76948659  0.99600452  0.62717151  1
  Sn  Sn159  1  0.70388642  0.00198286  0.86889595  1
