# generated using pymatgen
data_RbSnI3
_symmetry_space_group_name_H-M   'P 1'
_cell_length_a   17.68888849
_cell_length_b   17.68888849
_cell_length_c   25.01586500
_cell_angle_alpha   90.00000000
_cell_angle_beta   90.00000000
_cell_angle_gamma   90.00000000
_symmetry_Int_Tables_number   1
_chemical_formula_structural   RbSnI3
_chemical_formula_sum   'Rb32 Sn32 I96'
_cell_volume   7827.38350397
_cell_formula_units_Z   32
loop_
 _symmetry_equiv_pos_site_id
 _symmetry_equiv_pos_as_xyz
  1  'x, y, z'
loop_
 _atom_site_type_symbol
 _atom_site_label
 _atom_site_symmetry_multiplicity
 _atom_site_fract_x
 _atom_site_fract_y
 _atom_site_fract_z
 _atom_site_occupancy
  I  I0  1  0.09936147  0.16193847  0.97961321  1
  I  I1  1  0.14869361  0.10567849  0.28324978  1
  I  I2  1  0.08974272  0.15308687  0.47998162  1
  I  I3  1  0.15272187  0.10807987  0.78194095  1
  I  I4  1  0.61021646  0.15196019  0.96929816  1
  I  I5  1  0.65845680  0.09744358  0.26893376  1
  I  I6  1  0.59443776  0.14124989  0.46953737  1
  I  I7  1  0.65984293  0.09650034  0.77164498  1
  I  I8  1  0.41092736  0.34931821  0.02189196  1
  I  I9  1  0.35714151  0.39668277  0.22137583  1
  I  I10  1  0.39807023  0.34615981  0.52228153  1
  I  I11  1  0.36159705  0.40085664  0.72085835  1
  I  I12  1  0.11052504  0.65248109  0.97088519  1
  I  I13  1  0.15908075  0.59818195  0.27068554  1
  I  I14  1  0.09393542  0.64125804  0.46968245  1
  I  I15  1  0.16045595  0.59646876  0.77271675  1
  I  I16  1  0.90321729  0.36108790  0.03015587  1
  I  I17  1  0.84696396  0.40696546  0.22969503  1
  I  I18  1  0.88627909  0.34687636  0.53102714  1
  I  I19  1  0.84956299  0.40680907  0.73082645  1
  I  I20  1  0.60150626  0.65792357  0.97983219  1
  I  I21  1  0.64979713  0.60800990  0.28020654  1
  I  I22  1  0.59227183  0.65157916  0.47804333  1
  I  I23  1  0.65550366  0.60923114  0.78065623  1
  I  I24  1  0.40336709  0.86128475  0.02943888  1
  I  I25  1  0.34761764  0.90669364  0.22882779  1
  I  I26  1  0.38584894  0.84829621  0.52993263  1
  I  I27  1  0.34853183  0.90577629  0.72896065  1
  I  I28  1  0.91086597  0.85072431  0.02214002  1
  I  I29  1  0.85786158  0.89759003  0.21900863  1
  I  I30  1  0.90000597  0.84220991  0.52088781  1
  I  I31  1  0.85891613  0.90311776  0.71878292  1
  I  I32  1  0.85874540  0.09701001  0.02683351  1
  I  I33  1  0.89447325  0.15247635  0.22389294  1
  I  I34  1  0.83836248  0.10028728  0.52550380  1
  I  I35  1  0.90931173  0.14864401  0.72779335  1
  I  I36  1  0.34572251  0.10819316  0.97294736  1
  I  I37  1  0.39630355  0.15204598  0.27603569  1
  I  I38  1  0.34997559  0.09629269  0.47767280  1
  I  I39  1  0.39857127  0.15425431  0.77410888  1
  I  I40  1  0.14978149  0.40918695  0.02636200  1
  I  I41  1  0.09328910  0.35031429  0.22632959  1
  I  I42  1  0.15032412  0.39586375  0.52929219  1
  I  I43  1  0.09736854  0.35563143  0.72539457  1
  I  I44  1  0.84767946  0.60598317  0.97386865  1
  I  I45  1  0.89667488  0.65363395  0.27490757  1
  I  I46  1  0.84887208  0.59294036  0.47616679  1
  I  I47  1  0.90026340  0.65844250  0.77372203  1
  I  I48  1  0.65851845  0.39796320  0.97767193  1
  I  I49  1  0.59186271  0.35248574  0.27392056  1
  I  I50  1  0.64152500  0.40294335  0.47252076  1
  I  I51  1  0.60737191  0.34343940  0.77719055  1
  I  I52  1  0.35950130  0.59688580  0.02604199  1
  I  I53  1  0.39449729  0.65262947  0.22406140  1
  I  I54  1  0.33987782  0.60260656  0.52552044  1
  I  I55  1  0.40826254  0.64681343  0.72646725  1
  I  I56  1  0.15837899  0.89817768  0.97776455  1
  I  I57  1  0.09213541  0.85250743  0.27344846  1
  I  I58  1  0.14251667  0.90538310  0.47343132  1
  I  I59  1  0.10751634  0.84354830  0.77713702  1
  I  I60  1  0.64928063  0.90904022  0.02211125  1
  I  I61  1  0.59442321  0.85136970  0.22412381  1
  I  I62  1  0.65084389  0.89229721  0.52372188  1
  I  I63  1  0.59613642  0.85370557  0.72323218  1
  I  I64  1  0.05158938  0.00555524  0.12165367  1
  I  I65  1  0.94456971  0.00213711  0.37019680  1
  I  I66  1  0.05188985  0.00515038  0.61924766  1
  I  I67  1  0.95325832  0.00017591  0.86916861  1
  I  I68  1  0.49997100  0.05061343  0.12101008  1
  I  I69  1  0.49662789  0.94727229  0.36941722  1
  I  I70  1  0.49731105  0.04925897  0.61849630  1
  I  I71  1  0.49538761  0.94909735  0.86908924  1
  I  I72  1  0.25104494  0.19942122  0.13336477  1
  I  I73  1  0.25069212  0.30218788  0.38317703  1
  I  I74  1  0.25091820  0.20031053  0.63292420  1
  I  I75  1  0.25158045  0.30243530  0.88144666  1
  I  I76  1  0.99891550  0.55016144  0.12281004  1
  I  I77  1  0.99434579  0.44543182  0.37089176  1
  I  I78  1  0.99530256  0.55154591  0.61912685  1
  I  I79  1  0.99493191  0.45226274  0.87044285  1
  I  I80  1  0.69849512  0.25109573  0.12077240  1
  I  I81  1  0.79450493  0.24803149  0.37163953  1
  I  I82  1  0.69682121  0.24941834  0.62437827  1
  I  I83  1  0.80175615  0.24877494  0.87344011  1
  I  I84  1  0.54981445  0.50308287  0.12183634  1
  I  I85  1  0.44484522  0.50244722  0.37050039  1
  I  I86  1  0.55330622  0.50435771  0.61874077  1
  I  I87  1  0.45483837  0.50263007  0.86914857  1
  I  I88  1  0.19997830  0.75082782  0.12108673  1
  I  I89  1  0.29673993  0.75022328  0.37177385  1
  I  I90  1  0.19731742  0.74992862  0.62429827  1
  I  I91  1  0.30206791  0.74913689  0.87321670  1
  I  I92  1  0.74718999  0.70136915  0.12132162  1
  I  I93  1  0.74840973  0.79996256  0.37247553  1
  I  I94  1  0.74743203  0.70349446  0.62305893  1
  I  I95  1  0.75101185  0.80264336  0.87291127  1
  Rb  Rb96  1  0.02362090  0.22737421  0.11247137  1
  Rb  Rb97  1  0.00653198  0.23235601  0.35029991  1
  Rb  Rb98  1  0.02688241  0.22984353  0.61292497  1
  Rb  Rb99  1  0.01529335  0.23995794  0.85045801  1
  Rb  Rb100  1  0.48692169  0.26169462  0.15017745  1
  Rb  Rb101  1  0.47279295  0.27966425  0.38867089  1
  Rb  Rb102  1  0.48427233  0.26054058  0.64839608  1
  Rb  Rb103  1  0.47585593  0.27639876  0.88769848  1
  Rb  Rb104  1  0.23112204  0.52851883  0.13873791  1
  Rb  Rb105  1  0.23384564  0.51455557  0.40047871  1
  Rb  Rb106  1  0.22348041  0.52192910  0.64003001  1
  Rb  Rb107  1  0.24492790  0.51806395  0.90170365  1
  Rb  Rb108  1  0.98836388  0.76165511  0.14980670  1
  Rb  Rb109  1  0.97295360  0.77862909  0.38732687  1
  Rb  Rb110  1  0.98524811  0.76306818  0.64853083  1
  Rb  Rb111  1  0.97652918  0.77655589  0.88853098  1
  Rb  Rb112  1  0.76495859  0.48983132  0.10065030  1
  Rb  Rb113  1  0.77100426  0.47308031  0.36199065  1
  Rb  Rb114  1  0.76595643  0.49017023  0.60272514  1
  Rb  Rb115  1  0.77462226  0.47433875  0.86310191  1
  Rb  Rb116  1  0.52267143  0.72534657  0.11168618  1
  Rb  Rb117  1  0.50931931  0.73395452  0.34932397  1
  Rb  Rb118  1  0.52460406  0.72792694  0.61051637  1
  Rb  Rb119  1  0.51617422  0.73671506  0.85036212  1
  Rb  Rb120  1  0.26620495  0.99015015  0.10042845  1
  Rb  Rb121  1  0.27534138  0.97371743  0.36306827  1
  Rb  Rb122  1  0.26406894  0.98972026  0.60168774  1
  Rb  Rb123  1  0.27594301  0.97370076  0.86273297  1
  Rb  Rb124  1  0.72827563  0.02632910  0.13688896  1
  Rb  Rb125  1  0.73272004  0.01294908  0.39869524  1
  Rb  Rb126  1  0.71735936  0.01848402  0.63716925  1
  Rb  Rb127  1  0.74411234  0.01720125  0.89952622  1
  Sn  Sn128  1  0.99786665  0.99686815  0.00709984  1
  Sn  Sn129  1  0.99273784  0.99159401  0.25339620  1
  Sn  Sn130  1  0.00896909  0.00485562  0.50114105  1
  Sn  Sn131  1  0.99166537  0.00204015  0.75013262  1
  Sn  Sn132  1  0.50415278  0.99691152  0.00612917  1
  Sn  Sn133  1  0.49627342  0.98727106  0.25026388  1
  Sn  Sn134  1  0.49461189  0.00936445  0.49939969  1
  Sn  Sn135  1  0.49561545  0.98789307  0.75074461  1
  Sn  Sn136  1  0.24713368  0.24580692  0.99591118  1
  Sn  Sn137  1  0.25113228  0.23655741  0.25260076  1
  Sn  Sn138  1  0.25172702  0.26190160  0.50169905  1
  Sn  Sn139  1  0.25325827  0.23956298  0.75222337  1
  Sn  Sn140  1  0.00427121  0.49667265  0.00805660  1
  Sn  Sn141  1  0.99578906  0.48643213  0.25219405  1
  Sn  Sn142  1  0.99474963  0.50902524  0.50060757  1
  Sn  Sn143  1  0.99625815  0.48993669  0.75202070  1
  Sn  Sn144  1  0.74208733  0.25146921  0.00193462  1
  Sn  Sn145  1  0.75282751  0.24042211  0.25381267  1
  Sn  Sn146  1  0.75115731  0.24537866  0.50956932  1
  Sn  Sn147  1  0.74589337  0.24363269  0.75759864  1
  Sn  Sn148  1  0.49829897  0.49565990  0.00676446  1
  Sn  Sn149  1  0.49218461  0.49123976  0.25368774  1
  Sn  Sn150  1  0.51001377  0.50452278  0.50056343  1
  Sn  Sn151  1  0.49332266  0.50172378  0.75001601  1
  Sn  Sn152  1  0.24256017  0.75220642  0.00211956  1
  Sn  Sn153  1  0.25309547  0.74117503  0.25434626  1
  Sn  Sn154  1  0.25072724  0.74650967  0.50916930  1
  Sn  Sn155  1  0.24596059  0.74406183  0.75766521  1
  Sn  Sn156  1  0.74814429  0.74012039  0.00173797  1
  Sn  Sn157  1  0.75216269  0.74312934  0.25776986  1
  Sn  Sn158  1  0.75327211  0.75423049  0.50648307  1
  Sn  Sn159  1  0.75433486  0.74629211  0.75768436  1
