# generated using pymatgen
data_RbSnBr3
_symmetry_space_group_name_H-M   'P 1'
_cell_length_a   16.56638475
_cell_length_b   16.56638475
_cell_length_c   23.42840700
_cell_angle_alpha   90.00000000
_cell_angle_beta   90.00000000
_cell_angle_gamma   90.00000000
_symmetry_Int_Tables_number   1
_chemical_formula_structural   RbSnBr3
_chemical_formula_sum   'Rb32 Sn32 Br96'
_cell_volume   6429.81159216
_cell_formula_units_Z   32
loop_
 _symmetry_equiv_pos_site_id
 _symmetry_equiv_pos_as_xyz
  1  'x, y, z'
loop_
 _atom_site_type_symbol
 _atom_site_label
 _atom_site_symmetry_multiplicity
 _atom_site_fract_x
 _atom_site_fract_y
 _atom_site_fract_z
 _atom_site_occupancy
  Br  Br0  1  0.05134623  0.24436152  0.99207675  1
  Br  Br1  1  0.94692281  0.24236712  0.24318324  1
  Br  Br2  1  0.05202092  0.25502565  0.49333728  1
  Br  Br3  1  0.94997743  0.25748487  0.74211723  1
  Br  Br4  1  0.48554113  0.29048140  0.00558131  1
  Br  Br5  1  0.51089738  0.20106014  0.25534273  1
  Br  Br6  1  0.48863408  0.29738619  0.50494301  1
  Br  Br7  1  0.50822495  0.21260434  0.75468678  1
  Br  Br8  1  0.25708126  0.45062694  0.99181871  1
  Br  Br9  1  0.25155828  0.55136943  0.24446350  1
  Br  Br10  1  0.24285765  0.45091944  0.49344916  1
  Br  Br11  1  0.23890937  0.55256547  0.74234403  1
  Br  Br12  1  0.98319176  0.79440984  0.99453068  1
  Br  Br13  1  0.00447681  0.70220595  0.24402532  1
  Br  Br14  1  0.99500347  0.79912879  0.49166175  1
  Br  Br15  1  0.00219819  0.70822488  0.74241196  1
  Br  Br16  1  0.71000303  0.50333866  0.00768414  1
  Br  Br17  1  0.80189484  0.48932054  0.25845043  1
  Br  Br18  1  0.70214686  0.50857727  0.50622448  1
  Br  Br19  1  0.79730701  0.47921998  0.75635856  1
  Br  Br20  1  0.55228248  0.74171153  0.99324740  1
  Br  Br21  1  0.44703682  0.73726432  0.24368503  1
  Br  Br22  1  0.55198919  0.75493971  0.49344943  1
  Br  Br23  1  0.45007589  0.75646750  0.74278234  1
  Br  Br24  1  0.20843184  0.00371780  0.00909000  1
  Br  Br25  1  0.30212113  0.98813866  0.25941618  1
  Br  Br26  1  0.20141639  0.00759723  0.50764435  1
  Br  Br27  1  0.30286224  0.97752817  0.75838387  1
  Br  Br28  1  0.75600573  0.95107627  0.99266533  1
  Br  Br29  1  0.75179467  0.05236298  0.24498908  1
  Br  Br30  1  0.74303190  0.95104396  0.49449621  1
  Br  Br31  1  0.74054079  0.05223079  0.74357004  1
  Br  Br32  1  0.10642307  0.11110888  0.15857854  1
  Br  Br33  1  0.14994909  0.15583234  0.35060010  1
  Br  Br34  1  0.08530146  0.11143387  0.64309096  1
  Br  Br35  1  0.09504052  0.10324953  0.85556905  1
  Br  Br36  1  0.59945204  0.10737706  0.10211620  1
  Br  Br37  1  0.65914577  0.14387615  0.40240009  1
  Br  Br38  1  0.59607930  0.09198625  0.60482001  1
  Br  Br39  1  0.58011429  0.09297742  0.89270029  1
  Br  Br40  1  0.38770710  0.39506847  0.15746111  1
  Br  Br41  1  0.35781577  0.34046028  0.34983359  1
  Br  Br42  1  0.39993868  0.39709909  0.65048683  1
  Br  Br43  1  0.38895996  0.40333397  0.85060729  1
  Br  Br44  1  0.09755592  0.60518911  0.10366354  1
  Br  Br45  1  0.16039799  0.64411154  0.40005858  1
  Br  Br46  1  0.09639832  0.59188178  0.60123318  1
  Br  Br47  1  0.10023840  0.61525331  0.90550100  1
  Br  Br48  1  0.89406134  0.39970484  0.10059169  1
  Br  Br49  1  0.84836849  0.35463946  0.39912649  1
  Br  Br50  1  0.88219504  0.40695112  0.59508725  1
  Br  Br51  1  0.89616612  0.40111566  0.90412907  1
  Br  Br52  1  0.59881089  0.60258310  0.15450758  1
  Br  Br53  1  0.64988035  0.65613174  0.35010511  1
  Br  Br54  1  0.58604583  0.61229646  0.64375491  1
  Br  Br55  1  0.59385885  0.60091794  0.85788156  1
  Br  Br56  1  0.39290197  0.89693892  0.10324367  1
  Br  Br57  1  0.34559047  0.85194950  0.39930180  1
  Br  Br58  1  0.38084592  0.90515995  0.59247568  1
  Br  Br59  1  0.39026076  0.89591193  0.90847631  1
  Br  Br60  1  0.88756331  0.89441518  0.15902490  1
  Br  Br61  1  0.85636337  0.84211430  0.35193919  1
  Br  Br62  1  0.90022278  0.89395673  0.65008297  1
  Br  Br63  1  0.88828163  0.90421956  0.85021415  1
  Br  Br64  1  0.87926758  0.13194357  0.09036353  1
  Br  Br65  1  0.91978088  0.10183370  0.39693763  1
  Br  Br66  1  0.85623800  0.15259444  0.59783240  1
  Br  Br67  1  0.86547514  0.14855322  0.89815621  1
  Br  Br68  1  0.36170624  0.14621116  0.11686477  1
  Br  Br69  1  0.39092143  0.09511142  0.40334173  1
  Br  Br70  1  0.34057892  0.17159848  0.61485854  1
  Br  Br71  1  0.34773012  0.16407864  0.87792534  1
  Br  Br72  1  0.14797433  0.36529417  0.14884182  1
  Br  Br73  1  0.10496059  0.41547151  0.35363837  1
  Br  Br74  1  0.14282743  0.36633336  0.65646995  1
  Br  Br75  1  0.14484741  0.36935319  0.84637629  1
  Br  Br76  1  0.85734740  0.64968351  0.11379855  1
  Br  Br77  1  0.89031931  0.59743267  0.40327710  1
  Br  Br78  1  0.84214857  0.66936515  0.61359401  1
  Br  Br79  1  0.85557049  0.65591658  0.87853197  1
  Br  Br80  1  0.66905741  0.33964617  0.13415549  1
  Br  Br81  1  0.60023162  0.38492556  0.34876135  1
  Br  Br82  1  0.64849129  0.36244548  0.63480751  1
  Br  Br83  1  0.66656369  0.34507943  0.87470333  1
  Br  Br84  1  0.37343455  0.63593339  0.08974551  1
  Br  Br85  1  0.42044346  0.60075241  0.39737920  1
  Br  Br86  1  0.35725954  0.65205974  0.59825257  1
  Br  Br87  1  0.36587713  0.64724010  0.90000167  1
  Br  Br88  1  0.16745172  0.83911348  0.13493861  1
  Br  Br89  1  0.09862973  0.88763134  0.34434587  1
  Br  Br90  1  0.14998803  0.86075218  0.63660026  1
  Br  Br91  1  0.15817391  0.85513619  0.87151150  1
  Br  Br92  1  0.64738269  0.86592732  0.15041340  1
  Br  Br93  1  0.60493560  0.91543974  0.35449930  1
  Br  Br94  1  0.64234732  0.86656383  0.66038904  1
  Br  Br95  1  0.65116702  0.86140031  0.84870241  1
  Rb  Rb96  1  0.99060252  0.01348607  0.98194200  1
  Rb  Rb97  1  0.97681225  0.02096777  0.26305586  1
  Rb  Rb98  1  0.98586606  0.00928994  0.52504574  1
  Rb  Rb99  1  0.95971156  0.04109469  0.74965948  1
  Rb  Rb100  1  0.53789021  0.96091809  0.00546119  1
  Rb  Rb101  1  0.51165156  0.99195761  0.22692251  1
  Rb  Rb102  1  0.52064650  0.97589727  0.48755691  1
  Rb  Rb103  1  0.52119241  0.99124026  0.75639145  1
  Rb  Rb104  1  0.26466380  0.23785040  0.00300171  1
  Rb  Rb105  1  0.26788092  0.23259564  0.23624191  1
  Rb  Rb106  1  0.26668709  0.23594878  0.47835237  1
  Rb  Rb107  1  0.28342365  0.26544362  0.74966687  1
  Rb  Rb108  1  0.04004172  0.46446255  0.00220185  1
  Rb  Rb109  1  0.01148452  0.49019000  0.22655651  1
  Rb  Rb110  1  0.01858319  0.47458485  0.48612403  1
  Rb  Rb111  1  0.01568890  0.48708968  0.74799300  1
  Rb  Rb112  1  0.76782151  0.27941875  0.00298185  1
  Rb  Rb113  1  0.73628680  0.26529663  0.26902783  1
  Rb  Rb114  1  0.72951487  0.27765755  0.51052897  1
  Rb  Rb115  1  0.73771200  0.26467513  0.74855205  1
  Rb  Rb116  1  0.49043593  0.51186513  0.98804751  1
  Rb  Rb117  1  0.47771424  0.51600053  0.26495469  1
  Rb  Rb118  1  0.48734105  0.51054794  0.52570238  1
  Rb  Rb119  1  0.45994115  0.54155816  0.75056871  1
  Rb  Rb120  1  0.25047131  0.77297120  0.99978552  1
  Rb  Rb121  1  0.23724727  0.76455514  0.26886413  1
  Rb  Rb122  1  0.22749408  0.77476774  0.51138053  1
  Rb  Rb123  1  0.23880480  0.76485884  0.75135070  1
  Rb  Rb124  1  0.76463317  0.73838785  0.99677961  1
  Rb  Rb125  1  0.76982688  0.73325699  0.23672160  1
  Rb  Rb126  1  0.76576097  0.73642104  0.47836993  1
  Rb  Rb127  1  0.78494829  0.75914304  0.75003231  1
  Sn  Sn128  1  0.00074823  0.23633140  0.12996873  1
  Sn  Sn129  1  0.00958107  0.24273392  0.37742941  1
  Sn  Sn130  1  0.99178515  0.25017565  0.62442363  1
  Sn  Sn131  1  0.00476910  0.24386129  0.87588551  1
  Sn  Sn132  1  0.50367691  0.24519101  0.12105264  1
  Sn  Sn133  1  0.49916456  0.25018601  0.36979621  1
  Sn  Sn134  1  0.48799997  0.25630048  0.62222458  1
  Sn  Sn135  1  0.49995239  0.23987074  0.87450417  1
  Sn  Sn136  1  0.25807980  0.49692423  0.13138290  1
  Sn  Sn137  1  0.24594044  0.50170582  0.37774830  1
  Sn  Sn138  1  0.23504358  0.50137981  0.62513893  1
  Sn  Sn139  1  0.25096867  0.49653231  0.87548537  1
  Sn  Sn140  1  0.00221830  0.74155428  0.12600346  1
  Sn  Sn141  1  0.99883426  0.75615474  0.37360813  1
  Sn  Sn142  1  0.99001013  0.75168528  0.62618416  1
  Sn  Sn143  1  0.00049139  0.74736142  0.87982017  1
  Sn  Sn144  1  0.75167183  0.48920168  0.12371219  1
  Sn  Sn145  1  0.75966596  0.49597284  0.37555572  1
  Sn  Sn146  1  0.74749629  0.50210551  0.62225220  1
  Sn  Sn147  1  0.75874424  0.48999533  0.87354294  1
  Sn  Sn148  1  0.49847792  0.73434176  0.13006267  1
  Sn  Sn149  1  0.50903096  0.74226917  0.37760688  1
  Sn  Sn150  1  0.49188107  0.75118275  0.62544245  1
  Sn  Sn151  1  0.50452535  0.74217511  0.87775375  1
  Sn  Sn152  1  0.25175481  0.98753300  0.12465050  1
  Sn  Sn153  1  0.25923237  0.99443809  0.37598747  1
  Sn  Sn154  1  0.24826646  0.00054443  0.62265377  1
  Sn  Sn155  1  0.26027973  0.99302956  0.87397019  1
  Sn  Sn156  1  0.75830061  0.99621433  0.13203352  1
  Sn  Sn157  1  0.74567175  0.00190753  0.37862885  1
  Sn  Sn158  1  0.73410604  0.00037561  0.62678005  1
  Sn  Sn159  1  0.74929264  0.99497976  0.87593562  1
