# generated using pymatgen
data_RbSrBr3
_symmetry_space_group_name_H-M   'P 1'
_cell_length_a   16.99166281
_cell_length_b   16.99166281
_cell_length_c   24.02984000
_cell_angle_alpha   90.00000000
_cell_angle_beta   90.00000000
_cell_angle_gamma   90.00000000
_symmetry_Int_Tables_number   1
_chemical_formula_structural   RbSrBr3
_chemical_formula_sum   'Rb32 Sr32 Br96'
_cell_volume   6937.81382861
_cell_formula_units_Z   32
loop_
 _symmetry_equiv_pos_site_id
 _symmetry_equiv_pos_as_xyz
  1  'x, y, z'
loop_
 _atom_site_type_symbol
 _atom_site_label
 _atom_site_symmetry_multiplicity
 _atom_site_fract_x
 _atom_site_fract_y
 _atom_site_fract_z
 _atom_site_occupancy
  Br  Br0  1  0.96973054  0.26492948  0.00028963  1
  Br  Br1  1  0.05291138  0.24190421  0.25042204  1
  Br  Br2  1  0.95196348  0.24726847  0.50005188  1
  Br  Br3  1  0.05028420  0.24022118  0.74990403  1
  Br  Br4  1  0.52412316  0.30134297  0.00014662  1
  Br  Br5  1  0.49766444  0.20528334  0.24917872  1
  Br  Br6  1  0.48627752  0.29176446  0.50018860  1
  Br  Br7  1  0.50101934  0.20415901  0.75134997  1
  Br  Br8  1  0.29899329  0.52081871  0.00002940  1
  Br  Br9  1  0.20584601  0.50642955  0.24933089  1
  Br  Br10  1  0.28916242  0.49378019  0.50036503  1
  Br  Br11  1  0.20268215  0.50492486  0.75128553  1
  Br  Br12  1  0.02226910  0.80152889  -0.00029454  1
  Br  Br13  1  0.99837921  0.70340145  0.24859904  1
  Br  Br14  1  0.99322055  0.79150039  0.49941489  1
  Br  Br15  1  -0.00168975  0.70549254  0.75012239  1
  Br  Br16  1  0.76496596  0.46453746  -0.00027893  1
  Br  Br17  1  0.74519187  0.54864712  0.25088037  1
  Br  Br18  1  0.74998962  0.44447881  0.49980028  1
  Br  Br19  1  0.74802595  0.54954914  0.74864797  1
  Br  Br20  1  0.47028448  0.76504001  -0.00081846  1
  Br  Br21  1  0.54925203  0.73680212  0.24978700  1
  Br  Br22  1  0.44934192  0.74769000  0.49954481  1
  Br  Br23  1  0.55268627  0.74264368  0.74850352  1
  Br  Br24  1  0.26629128  0.96326050  0.99968943  1
  Br  Br25  1  0.24549017  0.04868073  0.25010441  1
  Br  Br26  1  0.25108056  0.94631421  0.49993019  1
  Br  Br27  1  0.24541068  0.05023368  0.74911157  1
  Br  Br28  1  0.79903443  0.02032472  0.99969920  1
  Br  Br29  1  0.70388042  0.00178545  0.24876384  1
  Br  Br30  1  0.79162774  0.00818429  0.49934971  1
  Br  Br31  1  0.70641174  0.00591887  0.74988443  1
  Br  Br32  1  0.10699373  0.10511742  0.10457911  1
  Br  Br33  1  0.13223017  0.12973516  0.40984775  1
  Br  Br34  1  0.13990593  0.13771843  0.59214235  1
  Br  Br35  1  0.10653291  0.10525095  0.89556406  1
  Br  Br36  1  0.61362657  0.11371105  0.09534309  1
  Br  Br37  1  0.64786827  0.14921566  0.38678369  1
  Br  Br38  1  0.64865196  0.14960779  0.61280364  1
  Br  Br39  1  0.61269329  0.11274197  0.90440886  1
  Br  Br40  1  0.39921095  0.40063134  0.15030993  1
  Br  Br41  1  0.33472148  0.33537762  0.36011870  1
  Br  Br42  1  0.33505296  0.33557165  0.64027958  1
  Br  Br43  1  0.39880449  0.39912610  0.84982818  1
  Br  Br44  1  0.10884983  0.61025439  0.09512312  1
  Br  Br45  1  0.14865206  0.64888618  0.38704105  1
  Br  Br46  1  0.14861913  0.64956157  0.61295729  1
  Br  Br47  1  0.11579293  0.61706412  0.90538492  1
  Br  Br48  1  0.91497100  0.41450402  0.14253477  1
  Br  Br49  1  0.85854101  0.35686871  0.34634741  1
  Br  Br50  1  0.85704770  0.35498871  0.65366942  1
  Br  Br51  1  0.91575848  0.41494669  0.85751640  1
  Br  Br52  1  0.60381968  0.60301431  0.10466457  1
  Br  Br53  1  0.63729598  0.63487632  0.40802990  1
  Br  Br54  1  0.63294387  0.63033488  0.58942294  1
  Br  Br55  1  0.60690854  0.60550808  0.89393040  1
  Br  Br56  1  0.41570915  0.91479194  0.14257166  1
  Br  Br57  1  0.35692608  0.85472750  0.34587233  1
  Br  Br58  1  0.35683572  0.85534116  0.65364997  1
  Br  Br59  1  0.41590382  0.91500337  0.85680739  1
  Br  Br60  1  0.89784605  0.89762526  0.15076936  1
  Br  Br61  1  0.83552227  0.83588372  0.36186168  1
  Br  Br62  1  0.83549575  0.83574083  0.63628842  1
  Br  Br63  1  0.89861662  0.89914028  0.84654944  1
  Br  Br64  1  0.86074196  0.14880140  0.14975532  1
  Br  Br65  1  0.88967771  0.10326168  0.34578929  1
  Br  Br66  1  0.90038811  0.09453967  0.64476652  1
  Br  Br67  1  0.85453502  0.15512085  0.85352411  1
  Br  Br68  1  0.35442011  0.15479732  0.10416683  1
  Br  Br69  1  0.39484747  0.09562574  0.39543022  1
  Br  Br70  1  0.39843126  0.09514968  0.60523347  1
  Br  Br71  1  0.35330500  0.15501806  0.89549124  1
  Br  Br72  1  0.15839934  0.35100689  0.10797815  1
  Br  Br73  1  0.09478260  0.39704476  0.39240490  1
  Br  Br74  1  0.09312213  0.39932914  0.60823535  1
  Br  Br75  1  0.15738427  0.35199906  0.89229675  1
  Br  Br76  1  0.85098731  0.65490460  0.10427077  1
  Br  Br77  1  0.89423326  0.59797591  0.39803732  1
  Br  Br78  1  0.89342804  0.59793450  0.60168017  1
  Br  Br79  1  0.85492302  0.65471059  0.89574329  1
  Br  Br80  1  0.65134022  0.35746031  0.15404230  1
  Br  Br81  1  0.59580694  0.39664043  0.35444778  1
  Br  Br82  1  0.60042765  0.39181795  0.65297587  1
  Br  Br83  1  0.65118356  0.35827474  0.85025483  1
  Br  Br84  1  0.34913144  0.65925379  0.14378249  1
  Br  Br85  1  0.39930467  0.59422590  0.35622784  1
  Br  Br86  1  0.39271926  0.60048187  0.65011298  1
  Br  Br87  1  0.36155211  0.64921551  0.84845791  1
  Br  Br88  1  0.15178603  0.85591404  0.14695763  1
  Br  Br89  1  0.10231740  0.88979093  0.34477477  1
  Br  Br90  1  0.09540290  0.89930355  0.64374075  1
  Br  Br91  1  0.14881245  0.86184402  0.84537868  1
  Br  Br92  1  0.65546858  0.85137905  0.10656747  1
  Br  Br93  1  0.59287746  0.89916112  0.39107133  1
  Br  Br94  1  0.59447032  0.89850301  0.60688622  1
  Br  Br95  1  0.65832412  0.85136467  0.89150541  1
  Rb  Rb96  1  0.00216509  0.00448982  0.00061542  1
  Rb  Rb97  1  0.02075866  0.02336708  0.23774955  1
  Rb  Rb98  1  0.00837738  0.01325074  0.51411315  1
  Rb  Rb99  1  0.02677073  0.01940506  0.76064297  1
  Rb  Rb100  1  0.48662060  0.99058823  0.00068652  1
  Rb  Rb101  1  0.49095325  0.99466575  0.27248023  1
  Rb  Rb102  1  0.46763291  0.96558229  0.49941967  1
  Rb  Rb103  1  0.49414919  0.99299053  0.72671540  1
  Rb  Rb104  1  0.22134382  0.22329816  -0.00013486  1
  Rb  Rb105  1  0.26612713  0.26047069  0.22727932  1
  Rb  Rb106  1  0.26814646  0.25515730  0.49881474  1
  Rb  Rb107  1  0.26337728  0.26156107  0.77232872  1
  Rb  Rb108  1  0.98351965  0.49423863  -0.00145820  1
  Rb  Rb109  1  0.99349645  0.49218510  0.27167235  1
  Rb  Rb110  1  -0.03303751  0.46354437  0.49956973  1
  Rb  Rb111  1  0.99020644  0.49403045  0.72742439  1
  Rb  Rb112  1  0.73441193  0.23135129  0.99509258  1
  Rb  Rb113  1  0.73548926  0.22405467  0.26039621  1
  Rb  Rb114  1  0.74641846  0.23235879  0.49959687  1
  Rb  Rb115  1  0.72477012  0.23180848  0.74065679  1
  Rb  Rb116  1  0.50177675  0.50361747  0.99776581  1
  Rb  Rb117  1  0.52651637  0.51762526  0.24018061  1
  Rb  Rb118  1  0.50600268  0.51340063  0.49021445  1
  Rb  Rb119  1  0.52068812  0.52330875  0.76125517  1
  Rb  Rb120  1  0.23458544  0.73303258  0.00972031  1
  Rb  Rb121  1  0.22446855  0.73365747  0.25950367  1
  Rb  Rb122  1  0.24209095  0.73836569  0.49997923  1
  Rb  Rb123  1  0.23401895  0.72557081  0.74025402  1
  Rb  Rb124  1  0.71955338  0.72200170  -0.00054860  1
  Rb  Rb125  1  0.76270256  0.76204564  0.22844582  1
  Rb  Rb126  1  0.77826975  0.73302037  0.50021883  1
  Rb  Rb127  1  0.76587347  0.76177787  0.77066137  1
  Sr  Sr128  1  0.00326593  0.25741645  0.12697983  1
  Sr  Sr129  1  -0.00055779  0.24294101  0.37373947  1
  Sr  Sr130  1  0.00000279  0.24477704  0.62638749  1
  Sr  Sr131  1  0.00267325  0.25713879  0.87343568  1
  Sr  Sr132  1  0.50584156  0.25456057  0.12453283  1
  Sr  Sr133  1  0.49356507  0.24806390  0.37463951  1
  Sr  Sr134  1  0.49424816  0.24898400  0.62586206  1
  Sr  Sr135  1  0.50467801  0.25380561  0.87585433  1
  Sr  Sr136  1  0.25275365  0.50551611  0.12455870  1
  Sr  Sr137  1  0.24819680  0.49443381  0.37448223  1
  Sr  Sr138  1  0.24805427  0.49439381  0.62622766  1
  Sr  Sr139  1  0.25343155  0.50595006  0.87547202  1
  Sr  Sr140  1  0.00314471  0.75287684  0.12366761  1
  Sr  Sr141  1  0.99473050  0.74907468  0.37367380  1
  Sr  Sr142  1  0.99487460  0.74900023  0.62504867  1
  Sr  Sr143  1  0.00590755  0.75521246  0.87509858  1
  Sr  Sr144  1  0.75669784  0.50048539  0.12662938  1
  Sr  Sr145  1  0.74530250  0.49605549  0.37449097  1
  Sr  Sr146  1  0.74385808  0.49527927  0.62521887  1
  Sr  Sr147  1  0.75809441  0.50189695  0.87279584  1
  Sr  Sr148  1  0.50128414  0.75625437  0.12633979  1
  Sr  Sr149  1  0.49941368  0.74458641  0.37373397  1
  Sr  Sr150  1  0.49954053  0.74416225  0.62515290  1
  Sr  Sr151  1  0.50339304  0.75779725  0.87204896  1
  Sr  Sr152  1  0.25813233  0.00126952  0.12616192  1
  Sr  Sr153  1  0.24412194  0.99585172  0.37407686  1
  Sr  Sr154  1  0.24689762  0.99781009  0.62542076  1
  Sr  Sr155  1  0.25808877  0.00131792  0.87311670  1
  Sr  Sr156  1  0.75301815  0.00434914  0.12431035  1
  Sr  Sr157  1  0.74794024  0.99453181  0.37442176  1
  Sr  Sr158  1  0.74849060  0.99500968  0.62439244  1
  Sr  Sr159  1  0.75392902  0.00522124  0.87459204  1
