# generated using pymatgen
data_RbSrI3
_symmetry_space_group_name_H-M   'P 1'
_cell_length_a   18.23169759
_cell_length_b   18.23169759
_cell_length_c   25.78351400
_cell_angle_alpha   90.00000000
_cell_angle_beta   90.00000000
_cell_angle_gamma   90.00000000
_symmetry_Int_Tables_number   1
_chemical_formula_structural   RbSrI3
_chemical_formula_sum   'Rb32 Sr32 I96'
_cell_volume   8570.30590440
_cell_formula_units_Z   32
loop_
 _symmetry_equiv_pos_site_id
 _symmetry_equiv_pos_as_xyz
  1  'x, y, z'
loop_
 _atom_site_type_symbol
 _atom_site_label
 _atom_site_symmetry_multiplicity
 _atom_site_fract_x
 _atom_site_fract_y
 _atom_site_fract_z
 _atom_site_occupancy
  Rb  Rb0  1  0.02757972  0.03660870  0.99349579  1
  Rb  Rb1  1  0.99600199  0.99908140  0.22142222  1
  Rb  Rb2  1  0.96645720  0.03222891  0.49578533  1
  Rb  Rb3  1  0.98560925  0.00900257  0.73498133  1
  Rb  Rb4  1  0.51226513  0.98497030  0.00267711  1
  Rb  Rb5  1  0.49933009  0.00936774  0.25311828  1
  Rb  Rb6  1  0.50379105  0.99740451  0.53325778  1
  Rb  Rb7  1  0.51659092  0.99671216  0.76268710  1
  Rb  Rb8  1  0.28973257  0.21548930  0.00090492  1
  Rb  Rb9  1  0.23407746  0.22419638  0.23546123  1
  Rb  Rb10  1  0.21841409  0.21763876  0.51332646  1
  Rb  Rb11  1  0.25086936  0.25499590  0.76549286  1
  Rb  Rb12  1  0.01503100  0.48220410  0.99791646  1
  Rb  Rb13  1  0.00608773  0.49670384  0.25541889  1
  Rb  Rb14  1  0.00071309  0.50095699  0.53373554  1
  Rb  Rb15  1  0.00417347  0.49932046  0.76042597  1
  Rb  Rb16  1  0.73339215  0.25858696  0.02501198  1
  Rb  Rb17  1  0.72202454  0.27912262  0.26357586  1
  Rb  Rb18  1  0.72144218  0.21978583  0.49929557  1
  Rb  Rb19  1  0.71803635  0.28057225  0.73893733  1
  Rb  Rb20  1  0.53086916  0.53390249  0.99380305  1
  Rb  Rb21  1  0.49462025  0.50337601  0.22189715  1
  Rb  Rb22  1  0.53128373  0.46784143  0.49583192  1
  Rb  Rb23  1  0.48374646  0.51893641  0.72951641  1
  Rb  Rb24  1  0.23838130  0.75929888  0.02401294  1
  Rb  Rb25  1  0.26002431  0.73364933  0.27046071  1
  Rb  Rb26  1  0.22373311  0.72396363  0.49871366  1
  Rb  Rb27  1  0.22379652  0.77185209  0.73993386  1
  Rb  Rb28  1  0.78986004  0.71229363  0.99777881  1
  Rb  Rb29  1  0.78328842  0.76734029  0.24339789  1
  Rb  Rb30  1  0.70196095  0.73089693  0.49704646  1
  Rb  Rb31  1  0.75623484  0.75046788  0.77062740  1
  Sr  Sr32  1  0.99478535  0.25027263  0.12262716  1
  Sr  Sr33  1  0.00152241  0.25163978  0.37120670  1
  Sr  Sr34  1  0.00042719  0.25348514  0.62385147  1
  Sr  Sr35  1  0.99845780  0.24760895  0.87100382  1
  Sr  Sr36  1  0.49863912  0.25103224  0.12633957  1
  Sr  Sr37  1  0.49584858  0.24985238  0.37438761  1
  Sr  Sr38  1  0.49542750  0.25431758  0.62606376  1
  Sr  Sr39  1  0.50344466  0.24939899  0.87393391  1
  Sr  Sr40  1  0.24915518  0.50206171  0.12357895  1
  Sr  Sr41  1  0.25037680  0.49778373  0.37467527  1
  Sr  Sr42  1  0.25037323  0.49957561  0.62525380  1
  Sr  Sr43  1  0.25403202  0.49976068  0.87466976  1
  Sr  Sr44  1  0.00029657  0.74934979  0.12501525  1
  Sr  Sr45  1  0.00029247  0.75123650  0.37651351  1
  Sr  Sr46  1  0.99875785  0.75374399  0.62684997  1
  Sr  Sr47  1  0.00546895  0.75056713  0.87612231  1
  Sr  Sr48  1  0.75023909  0.50052387  0.12616663  1
  Sr  Sr49  1  0.75064246  0.50326711  0.37398246  1
  Sr  Sr50  1  0.74855768  0.50770289  0.62608915  1
  Sr  Sr51  1  0.75144139  0.49421312  0.87363715  1
  Sr  Sr52  1  0.49578212  0.75004478  0.12319194  1
  Sr  Sr53  1  0.49748658  0.75033030  0.37285275  1
  Sr  Sr54  1  0.49803032  0.75491211  0.62550978  1
  Sr  Sr55  1  0.49770563  0.74878715  0.87332893  1
  Sr  Sr56  1  0.24898539  0.99757567  0.12504409  1
  Sr  Sr57  1  0.25079454  0.00002994  0.37415714  1
  Sr  Sr58  1  0.24933100  0.00215474  0.62549243  1
  Sr  Sr59  1  0.25157943  0.99673869  0.87266636  1
  Sr  Sr60  1  0.74770881  0.00069967  0.12192320  1
  Sr  Sr61  1  0.75134327  0.99758832  0.37273882  1
  Sr  Sr62  1  0.75032396  0.99737816  0.62517890  1
  Sr  Sr63  1  0.75244171  0.00122289  0.87592567  1
  I  I64  1  0.96225280  0.27423350  0.99634295  1
  I  I65  1  0.01573040  0.20461928  0.24602242  1
  I  I66  1  0.00514332  0.29375428  0.49735382  1
  I  I67  1  0.03413293  0.21529808  0.74726935  1
  I  I68  1  0.49995227  0.19970553  0.00040701  1
  I  I69  1  0.51092880  0.30014937  0.25031853  1
  I  I70  1  0.50642885  0.20582140  0.50091450  1
  I  I71  1  0.50707666  0.30473923  0.75002326  1
  I  I72  1  0.21833459  0.53317598  0.99865672  1
  I  I73  1  0.29070668  0.51216614  0.24864999  1
  I  I74  1  0.20553704  0.51563041  0.50075754  1
  I  I75  1  0.28019833  0.46541843  0.74963048  1
  I  I76  1  0.00094728  0.69528774  0.00062604  1
  I  I77  1  0.99420398  0.79619898  0.24935718  1
  I  I78  1  0.00706853  0.70562366  0.50284071  1
  I  I79  1  0.00866038  0.80084318  0.75200270  1
  I  I80  1  0.80040549  0.49960432  0.00015668  1
  I  I81  1  0.69823665  0.49401984  0.24943299  1
  I  I82  1  0.78984183  0.52206732  0.50046960  1
  I  I83  1  0.69529207  0.49470502  0.74992319  1
  I  I84  1  0.46089238  0.77730862  0.99795787  1
  I  I85  1  0.49984586  0.70817451  0.24727326  1
  I  I86  1  0.49162467  0.79224122  0.49927670  1
  I  I87  1  0.54016412  0.72658749  0.74945876  1
  I  I88  1  0.30030938  0.00026090  0.99971972  1
  I  I89  1  0.19916660  0.01188047  0.24804758  1
  I  I90  1  0.29728764  0.01622532  0.50031142  1
  I  I91  1  0.19612180  0.99449718  0.74952616  1
  I  I92  1  0.71539889  0.04200106  0.99875617  1
  I  I93  1  0.78888905  0.97885483  0.24651735  1
  I  I94  1  0.71086919  0.01181632  0.49952593  1
  I  I95  1  0.77229602  0.96506104  0.75013550  1
  I  I96  1  0.14819556  0.14986629  0.09965977  1
  I  I97  1  0.11170033  0.11232044  0.40475867  1
  I  I98  1  0.09730022  0.10005328  0.59919753  1
  I  I99  1  0.15050355  0.14780969  0.89988388  1
  I  I100  1  0.65142558  0.15437469  0.14724664  1
  I  I101  1  0.61789897  0.11756703  0.34501931  1
  I  I102  1  0.60209413  0.10538906  0.64814983  1
  I  I103  1  0.64431218  0.14175306  0.84031510  1
  I  I104  1  0.34028353  0.34261113  0.11696536  1
  I  I105  1  0.38886523  0.38860291  0.40488672  1
  I  I106  1  0.40774774  0.41077481  0.60433757  1
  I  I107  1  0.34859729  0.34309645  0.89327303  1
  I  I108  1  0.15530731  0.65812541  0.14394415  1
  I  I109  1  0.11109098  0.61147089  0.34872853  1
  I  I110  1  0.09949706  0.60048009  0.65064332  1
  I  I111  1  0.14484281  0.64125054  0.84347562  1
  I  I112  1  0.84015957  0.34323137  0.14413156  1
  I  I113  1  0.88178854  0.38404003  0.34078048  1
  I  I114  1  0.89864556  0.40335765  0.64787574  1
  I  I115  1  0.85926838  0.35629969  0.83729470  1
  I  I116  1  0.64782049  0.64869915  0.09915108  1
  I  I117  1  0.60513936  0.60707805  0.40117963  1
  I  I118  1  0.59609289  0.60331438  0.59927667  1
  I  I119  1  0.64988117  0.64511419  0.89872266  1
  I  I120  1  0.34000910  0.84305169  0.14431190  1
  I  I121  1  0.38871922  0.88918227  0.34089143  1
  I  I122  1  0.40559523  0.91041565  0.65049382  1
  I  I123  1  0.35666625  0.85508605  0.84104182  1
  I  I124  1  0.84426801  0.84440906  0.10650940  1
  I  I125  1  0.89385339  0.89344380  0.40156349  1
  I  I126  1  0.90945265  0.91115617  0.60843500  1
  I  I127  1  0.84978073  0.84604118  0.89345285  1
  I  I128  1  0.90413164  0.09329026  0.10709264  1
  I  I129  1  0.85611132  0.14483717  0.39638636  1
  I  I130  1  0.84868365  0.15192865  0.61513546  1
  I  I131  1  0.91122786  0.08863295  0.87333639  1
  I  I132  1  0.39038671  0.10795433  0.15095306  1
  I  I133  1  0.35895382  0.14105755  0.34169409  1
  I  I134  1  0.33988036  0.16140697  0.64154137  1
  I  I135  1  0.38834722  0.11200485  0.84208617  1
  I  I136  1  0.09068509  0.40645866  0.13282706  1
  I  I137  1  0.14207221  0.35892695  0.34140562  1
  I  I138  1  0.15578736  0.34498615  0.62697380  1
  I  I139  1  0.10056366  0.39868779  0.86856029  1
  I  I140  1  0.89258701  0.60669291  0.15484620  1
  I  I141  1  0.85634914  0.64502998  0.34919526  1
  I  I142  1  0.84779967  0.65591902  0.65156167  1
  I  I143  1  0.88811413  0.61187735  0.84922076  1
  I  I144  1  0.60133742  0.39815226  0.09721607  1
  I  I145  1  0.64588945  0.35484825  0.39878881  1
  I  I146  1  0.65139841  0.35215017  0.60382072  1
  I  I147  1  0.62215002  0.37813853  0.91245911  1
  I  I148  1  0.40564041  0.59292908  0.10407835  1
  I  I149  1  0.34881400  0.64966847  0.39194930  1
  I  I150  1  0.34476538  0.65623627  0.63511586  1
  I  I151  1  0.41247859  0.58873454  0.87488156  1
  I  I152  1  0.09978002  0.89956553  0.09579456  1
  I  I153  1  0.15563202  0.84559561  0.38881857  1
  I  I154  1  0.15827106  0.84445574  0.61005482  1
  I  I155  1  0.11886669  0.88408911  0.91212863  1
  I  I156  1  0.58930497  0.90787105  0.13330751  1
  I  I157  1  0.65038555  0.84798599  0.36065501  1
  I  I158  1  0.65537368  0.84492062  0.61931150  1
  I  I159  1  0.60001649  0.89995255  0.87754456  1
