# generated using pymatgen
data_RbSrF3
_symmetry_space_group_name_H-M   'P 1'
_cell_length_a   13.54920820
_cell_length_b   13.54920820
_cell_length_c   19.16147400
_cell_angle_alpha   90.00000000
_cell_angle_beta   90.00000000
_cell_angle_gamma   90.00000000
_symmetry_Int_Tables_number   1
_chemical_formula_structural   RbSrF3
_chemical_formula_sum   'Rb32 Sr32 F96'
_cell_volume   3517.68338093
_cell_formula_units_Z   32
loop_
 _symmetry_equiv_pos_site_id
 _symmetry_equiv_pos_as_xyz
  1  'x, y, z'
loop_
 _atom_site_type_symbol
 _atom_site_label
 _atom_site_symmetry_multiplicity
 _atom_site_fract_x
 _atom_site_fract_y
 _atom_site_fract_z
 _atom_site_occupancy
  F  F0  1  -0.00212732  0.29101622  -0.00015042  1
  F  F1  1  0.00190427  0.20836281  0.24996334  1
  F  F2  1  -0.00170676  0.29122549  0.49986526  1
  F  F3  1  0.00247035  0.20863657  0.74999206  1
  F  F4  1  0.45839938  0.25193230  -0.00002658  1
  F  F5  1  0.54105967  0.24783178  0.24996978  1
  F  F6  1  0.45852679  0.25168226  0.50001244  1
  F  F7  1  0.54141030  0.24799365  0.74993447  1
  F  F8  1  0.25186199  0.45849212  0.00005736  1
  F  F9  1  0.24784642  0.54121562  0.25008904  1
  F  F10  1  0.25185720  0.45822734  0.50003125  1
  F  F11  1  0.24777611  0.54132206  0.74994804  1
  F  F12  1  0.95870109  0.75180404  0.00004462  1
  F  F13  1  0.04109191  0.74779619  0.25005958  1
  F  F14  1  0.95818994  0.75179882  0.49999913  1
  F  F15  1  0.04134263  0.74814379  0.74987359  1
  F  F16  1  0.79125246  0.49859433  -0.00011846  1
  F  F17  1  0.70821719  0.50094532  0.24995126  1
  F  F18  1  0.79125446  0.49736825  0.49979393  1
  F  F19  1  0.70884591  0.50159700  0.74995166  1
  F  F20  1  0.49867443  0.79128259  -0.00025787  1
  F  F21  1  0.50067003  0.70835556  0.24988411  1
  F  F22  1  0.49908108  0.79120366  0.49980476  1
  F  F23  1  0.50154230  0.70830815  0.74990688  1
  F  F24  1  0.29120435  -0.00134187  -0.00020755  1
  F  F25  1  0.20827941  0.00181621  0.24988317  1
  F  F26  1  0.29141287  -0.00149341  0.49972659  1
  F  F27  1  0.20878409  0.00124082  0.74986024  1
  F  F28  1  0.75204068  0.95861830  0.00003936  1
  F  F29  1  0.74708654  0.04125085  0.25000830  1
  F  F30  1  0.75164451  0.95868639  0.49995657  1
  F  F31  1  0.74824675  0.04144111  0.74994456  1
  F  F32  1  0.15142898  0.15167470  0.11196492  1
  F  F33  1  0.11179297  0.11179945  0.40230343  1
  F  F34  1  0.15249295  0.15224669  0.61241460  1
  F  F35  1  0.11194328  0.11184672  0.90237436  1
  F  F36  1  0.63599780  0.13602471  0.09693429  1
  F  F37  1  0.59605454  0.09621964  0.38732121  1
  F  F38  1  0.63701519  0.13698561  0.59684042  1
  F  F39  1  0.59694195  0.09688754  0.88744774  1
  F  F40  1  0.36288018  0.36289942  0.15323172  1
  F  F41  1  0.40315631  0.40308766  0.36279945  1
  F  F42  1  0.36377517  0.36363456  0.65306292  1
  F  F43  1  0.40316462  0.40314689  0.86244669  1
  F  F44  1  0.13630967  0.63641651  0.09738649  1
  F  F45  1  0.09657007  0.59642690  0.38748491  1
  F  F46  1  0.13687607  0.63683005  0.59675628  1
  F  F47  1  0.09673999  0.59677250  0.88755809  1
  F  F48  1  0.84742952  0.34758434  0.13746539  1
  F  F49  1  0.88773003  0.38764983  0.34706647  1
  F  F50  1  0.84822822  0.34799380  0.63765148  1
  F  F51  1  0.88803241  0.38794888  0.84706616  1
  F  F52  1  0.65154522  0.65165135  0.11233638  1
  F  F53  1  0.61187833  0.61177458  0.40202068  1
  F  F54  1  0.65249184  0.65216055  0.61216360  1
  F  F55  1  0.61193373  0.61183310  0.90234279  1
  F  F56  1  0.34744260  0.84764191  0.13727033  1
  F  F57  1  0.38736160  0.88741240  0.34699066  1
  F  F58  1  0.34853843  0.84822107  0.63730348  1
  F  F59  1  0.38807451  0.88794412  0.84700367  1
  F  F60  1  0.86286398  0.86304561  0.15359921  1
  F  F61  1  0.90264237  0.90271536  0.36272837  1
  F  F62  1  0.86358537  0.86353383  0.65293695  1
  F  F63  1  0.90321525  0.90322385  0.86254130  1
  F  F64  1  0.89507436  0.10421881  0.10478963  1
  F  F65  1  0.85273198  0.14674958  0.39432115  1
  F  F66  1  0.89606273  0.10423093  0.60490029  1
  F  F67  1  0.85290321  0.14690117  0.89444677  1
  F  F68  1  0.39507747  0.10416590  0.14518518  1
  F  F69  1  0.35259800  0.14695389  0.35534731  1
  F  F70  1  0.39599811  0.10433561  0.64505806  1
  F  F71  1  0.35307867  0.14697978  0.85544473  1
  F  F72  1  0.10373226  0.39553645  0.14500972  1
  F  F73  1  0.14690187  0.35283997  0.35531479  1
  F  F74  1  0.10454353  0.39565733  0.64506929  1
  F  F75  1  0.14717180  0.35283926  0.85561402  1
  F  F76  1  0.89507911  0.60412773  0.14506542  1
  F  F77  1  0.85281093  0.64650870  0.35530636  1
  F  F78  1  0.89601726  0.60419885  0.64511240  1
  F  F79  1  0.85301205  0.64710377  0.85542057  1
  F  F80  1  0.60394871  0.39525831  0.10459346  1
  F  F81  1  0.64695458  0.35231644  0.39440609  1
  F  F82  1  0.60444281  0.39598175  0.60482987  1
  F  F83  1  0.64718246  0.35274460  0.89443611  1
  F  F84  1  0.39534076  0.60395703  0.10464155  1
  F  F85  1  0.35281608  0.64672704  0.39505971  1
  F  F86  1  0.39558257  0.60467188  0.60463335  1
  F  F87  1  0.35277731  0.64706399  0.89470181  1
  F  F88  1  0.10407819  0.89532557  0.10460350  1
  F  F89  1  0.14645853  0.85297758  0.39466078  1
  F  F90  1  0.10465293  0.89568571  0.60457637  1
  F  F91  1  0.14711818  0.85283096  0.89443298  1
  F  F92  1  0.60401035  0.89513617  0.14509902  1
  F  F93  1  0.64687930  0.85256128  0.35538517  1
  F  F94  1  0.60458540  0.89559356  0.64529740  1
  F  F95  1  0.64693522  0.85303675  0.85517539  1
  Rb  Rb96  1  -0.01064951  -0.01011289  0.99355223  1
  Rb  Rb97  1  -0.00671504  -0.00694048  0.24026225  1
  Rb  Rb98  1  0.98926427  0.98893929  0.49339303  1
  Rb  Rb99  1  -0.00633763  -0.00638339  0.73965869  1
  Rb  Rb100  1  0.50620810  0.00639508  0.00997351  1
  Rb  Rb101  1  0.51040029  0.01046328  0.25627281  1
  Rb  Rb102  1  0.50643945  0.00661363  0.51033462  1
  Rb  Rb103  1  0.51077395  0.01068405  0.75632063  1
  Rb  Rb104  1  0.24303590  0.24286009  0.98889977  1
  Rb  Rb105  1  0.23874115  0.23888228  0.24312727  1
  Rb  Rb106  1  0.24318373  0.24292790  0.48889457  1
  Rb  Rb107  1  0.23990748  0.23982798  0.74304156  1
  Rb  Rb108  1  0.00614208  0.50634694  0.01027388  1
  Rb  Rb109  1  0.01045480  0.51038059  0.25628537  1
  Rb  Rb110  1  0.00654517  0.50641682  0.51038793  1
  Rb  Rb111  1  0.01071150  0.51060245  0.75633223  1
  Rb  Rb112  1  0.76007658  0.25949809  0.00687167  1
  Rb  Rb113  1  0.75626787  0.25663390  0.26079831  1
  Rb  Rb114  1  0.76096918  0.26090746  0.50680230  1
  Rb  Rb115  1  0.75660755  0.25700285  0.76092466  1
  Rb  Rb116  1  0.48909410  0.48928524  0.99356486  1
  Rb  Rb117  1  0.49325500  0.49320055  0.23984761  1
  Rb  Rb118  1  0.48932248  0.48959071  0.49346411  1
  Rb  Rb119  1  0.49381127  0.49350606  0.73978437  1
  Rb  Rb120  1  0.25946692  0.75993583  0.00699880  1
  Rb  Rb121  1  0.25666466  0.75639902  0.26054938  1
  Rb  Rb122  1  0.26071753  0.76068484  0.50707880  1
  Rb  Rb123  1  0.25687929  0.75696898  0.76056020  1
  Rb  Rb124  1  0.74283413  0.74288957  -0.01083543  1
  Rb  Rb125  1  0.73892864  0.73889232  0.24317785  1
  Rb  Rb126  1  0.74268487  0.74346886  0.48852778  1
  Rb  Rb127  1  0.73997336  0.73973806  0.74295563  1
  Sr  Sr128  1  0.99956139  0.24977222  0.12488060  1
  Sr  Sr129  1  -0.00016366  0.24984865  0.37489013  1
  Sr  Sr130  1  0.00028493  0.24994932  0.62498145  1
  Sr  Sr131  1  -0.00001347  0.24996360  0.87486227  1
  Sr  Sr132  1  0.49954610  0.24974809  0.12498963  1
  Sr  Sr133  1  0.49971604  0.24973818  0.37498545  1
  Sr  Sr134  1  0.50023615  0.25018423  0.62491815  1
  Sr  Sr135  1  0.49999696  0.25002690  0.87498466  1
  Sr  Sr136  1  0.24971567  0.49958784  0.12506782  1
  Sr  Sr137  1  0.24984819  0.49980141  0.37507999  1
  Sr  Sr138  1  0.25015000  0.50003300  0.62493617  1
  Sr  Sr139  1  0.24995498  0.49997792  0.87501869  1
  Sr  Sr140  1  -0.00047617  0.74984056  0.12506214  1
  Sr  Sr141  1  -0.00026887  0.74953041  0.37505343  1
  Sr  Sr142  1  0.00010659  0.75006207  0.62489497  1
  Sr  Sr143  1  0.00000640  0.75006115  0.87497055  1
  Sr  Sr144  1  0.74956245  0.49958046  0.12483490  1
  Sr  Sr145  1  0.74981090  0.49947776  0.37486123  1
  Sr  Sr146  1  0.75022201  0.50006689  0.62495648  1
  Sr  Sr147  1  0.75002419  0.49996287  0.87492308  1
  Sr  Sr148  1  0.49953923  0.74970109  0.12478386  1
  Sr  Sr149  1  0.49961015  0.74975682  0.37479427  1
  Sr  Sr150  1  0.50037386  0.74993498  0.62488822  1
  Sr  Sr151  1  0.49992367  0.74988251  0.87485252  1
  Sr  Sr152  1  0.24957600  0.99982026  0.12478329  1
  Sr  Sr153  1  0.24974115  -0.00021797  0.37482617  1
  Sr  Sr154  1  0.25027117  0.00014990  0.62489170  1
  Sr  Sr155  1  0.25003825  -0.00011626  0.87483226  1
  Sr  Sr156  1  0.74961107  -0.00040641  0.12506409  1
  Sr  Sr157  1  0.74954241  -0.00012632  0.37494107  1
  Sr  Sr158  1  0.75015138  0.00014839  0.62495986  1
  Sr  Sr159  1  0.75001592  -0.00013123  0.87496648  1
