# generated using pymatgen
data_RbSrCl3
_symmetry_space_group_name_H-M   'P 1'
_cell_length_a   16.12892325
_cell_length_b   16.12892325
_cell_length_c   22.80974200
_cell_angle_alpha   90.00000000
_cell_angle_beta   90.00000000
_cell_angle_gamma   90.00000000
_symmetry_Int_Tables_number   1
_chemical_formula_structural   RbSrCl3
_chemical_formula_sum   'Rb32 Sr32 Cl96'
_cell_volume   5933.77566819
_cell_formula_units_Z   32
loop_
 _symmetry_equiv_pos_site_id
 _symmetry_equiv_pos_as_xyz
  1  'x, y, z'
loop_
 _atom_site_type_symbol
 _atom_site_label
 _atom_site_symmetry_multiplicity
 _atom_site_fract_x
 _atom_site_fract_y
 _atom_site_fract_z
 _atom_site_occupancy
  Cl  Cl0  1  0.99307781  0.29077524  0.99747805  1
  Cl  Cl1  1  0.00771323  0.20945752  0.24859768  1
  Cl  Cl2  1  0.00875295  0.29261844  0.49954893  1
  Cl  Cl3  1  0.00284066  0.20547942  0.74775785  1
  Cl  Cl4  1  0.49075569  0.20606232  0.00019002  1
  Cl  Cl5  1  0.52384223  0.28850391  0.25035459  1
  Cl  Cl6  1  0.50799621  0.20733667  0.50036082  1
  Cl  Cl7  1  0.50819673  0.29542616  0.74888729  1
  Cl  Cl8  1  0.20740499  0.50764654  0.00020772  1
  Cl  Cl9  1  0.29311980  0.51296258  0.25005063  1
  Cl  Cl10  1  0.20957486  0.50685312  0.50128598  1
  Cl  Cl11  1  0.29619422  0.48080612  0.74950091  1
  Cl  Cl12  1  0.00875762  0.70630991  0.99951422  1
  Cl  Cl13  1  0.01667969  0.78919018  0.24959348  1
  Cl  Cl14  1  0.00956625  0.70417267  0.50090351  1
  Cl  Cl15  1  0.01023293  0.79475510  0.74937682  1
  Cl  Cl16  1  0.79778250  0.49578857  0.99733170  1
  Cl  Cl17  1  0.71179789  0.50512825  0.24827775  1
  Cl  Cl18  1  0.79244340  0.51472717  0.49910200  1
  Cl  Cl19  1  0.70588782  0.49126662  0.74792556  1
  Cl  Cl20  1  0.50590223  0.79555079  -0.00007704  1
  Cl  Cl21  1  0.50555186  0.70616362  0.24973926  1
  Cl  Cl22  1  0.51595381  0.78777786  0.50054614  1
  Cl  Cl23  1  0.51057413  0.70707967  0.74957158  1
  Cl  Cl24  1  0.29444264  0.02399591  -0.00085270  1
  Cl  Cl25  1  0.21326596  0.00661539  0.24879678  1
  Cl  Cl26  1  0.29144068  0.01924142  0.49981415  1
  Cl  Cl27  1  0.20618182  0.99101119  0.74886303  1
  Cl  Cl28  1  0.71229955  0.98160597  0.00012775  1
  Cl  Cl29  1  0.79498102  0.01632726  0.25035665  1
  Cl  Cl30  1  0.70577174  0.00123151  0.50046748  1
  Cl  Cl31  1  0.79331136  0.98877794  0.74943888  1
  Cl  Cl32  1  0.10350040  0.10197498  0.10600995  1
  Cl  Cl33  1  0.11421534  0.11415678  0.39767888  1
  Cl  Cl34  1  0.15011854  0.15259724  0.61041185  1
  Cl  Cl35  1  0.10615931  0.10839684  0.89265046  1
  Cl  Cl36  1  0.60146432  0.09977035  0.14248295  1
  Cl  Cl37  1  0.61255866  0.10891275  0.34871529  1
  Cl  Cl38  1  0.65005953  0.15095898  0.63933871  1
  Cl  Cl39  1  0.62090924  0.12355409  0.84642239  1
  Cl  Cl40  1  0.39694717  0.39322834  0.09917997  1
  Cl  Cl41  1  0.39946023  0.39626600  0.39209662  1
  Cl  Cl42  1  0.34307251  0.34323787  0.60758480  1
  Cl  Cl43  1  0.37411538  0.37284924  0.90895501  1
  Cl  Cl44  1  0.10426933  0.60212584  0.14559775  1
  Cl  Cl45  1  0.11522184  0.61462945  0.34484527  1
  Cl  Cl46  1  0.14828560  0.64730189  0.64260693  1
  Cl  Cl47  1  0.12778192  0.62454040  0.84827214  1
  Cl  Cl48  1  0.90032157  0.40044251  0.14173636  1
  Cl  Cl49  1  0.88772649  0.38609485  0.34219525  1
  Cl  Cl50  1  0.84241352  0.34521918  0.63169220  1
  Cl  Cl51  1  0.87294318  0.37647122  0.84575814  1
  Cl  Cl52  1  0.61097521  0.61325237  0.09576484  1
  Cl  Cl53  1  0.60869254  0.60583306  0.39112372  1
  Cl  Cl54  1  0.65047808  0.65223320  0.61271984  1
  Cl  Cl55  1  0.62590621  0.62716741  0.90541394  1
  Cl  Cl56  1  0.40348654  0.90416540  0.14258872  1
  Cl  Cl57  1  0.39216692  0.89252164  0.34924248  1
  Cl  Cl58  1  0.34715723  0.84877288  0.63192492  1
  Cl  Cl59  1  0.37763339  0.87827809  0.84520084  1
  Cl  Cl60  1  0.90349156  0.90212507  0.10798478  1
  Cl  Cl61  1  0.88651408  0.88389770  0.40578641  1
  Cl  Cl62  1  0.84221420  0.84223010  0.60953201  1
  Cl  Cl63  1  0.89108597  0.89127501  0.89558255  1
  Cl  Cl64  1  0.85712085  0.14450828  0.09927221  1
  Cl  Cl65  1  0.85360299  0.14691886  0.39432038  1
  Cl  Cl66  1  0.89133669  0.10490268  0.59102919  1
  Cl  Cl67  1  0.86267684  0.13639774  0.89624632  1
  Cl  Cl68  1  0.35650527  0.14870761  0.14497940  1
  Cl  Cl69  1  0.35774315  0.14507410  0.35182041  1
  Cl  Cl70  1  0.39904135  0.09963846  0.64720186  1
  Cl  Cl71  1  0.36286135  0.13732495  0.83994350  1
  Cl  Cl72  1  0.15606160  0.34481604  0.13133101  1
  Cl  Cl73  1  0.15380227  0.34882447  0.36148437  1
  Cl  Cl74  1  0.09804234  0.39667446  0.64807793  1
  Cl  Cl75  1  0.13035419  0.36893375  0.84428579  1
  Cl  Cl76  1  0.85724488  0.64530485  0.14363880  1
  Cl  Cl77  1  0.85998654  0.64218097  0.34976756  1
  Cl  Cl78  1  0.90093980  0.59726042  0.64737249  1
  Cl  Cl79  1  0.86783831  0.63537156  0.84096542  1
  Cl  Cl80  1  0.64930905  0.35592861  0.09734877  1
  Cl  Cl81  1  0.65254229  0.35020481  0.39431720  1
  Cl  Cl82  1  0.59721499  0.40157537  0.60140009  1
  Cl  Cl83  1  0.63231947  0.36917479  0.89717820  1
  Cl  Cl84  1  0.34425162  0.65497432  0.11142615  1
  Cl  Cl85  1  0.36149309  0.64039570  0.40263738  1
  Cl  Cl86  1  0.39717105  0.60029367  0.60649122  1
  Cl  Cl87  1  0.37156622  0.62703611  0.90218435  1
  Cl  Cl88  1  0.15718597  0.84475312  0.11163739  1
  Cl  Cl89  1  0.14186041  0.86027240  0.40342867  1
  Cl  Cl90  1  0.10957146  0.88783359  0.59566499  1
  Cl  Cl91  1  0.14179038  0.86027756  0.89282149  1
  Cl  Cl92  1  0.65231522  0.84765036  0.13908310  1
  Cl  Cl93  1  0.65268829  0.84619497  0.35948569  1
  Cl  Cl94  1  0.60067503  0.89923959  0.64833357  1
  Cl  Cl95  1  0.63255208  0.86618899  0.84852636  1
  Rb  Rb96  1  0.97771476  0.02369604  0.99692803  1
  Rb  Rb97  1  0.00274964  0.99979437  0.22632570  1
  Rb  Rb98  1  0.00792867  -0.00325491  0.49344894  1
  Rb  Rb99  1  -0.00072208  0.00032397  0.77904499  1
  Rb  Rb100  1  0.50318667  0.00141237  0.02639448  1
  Rb  Rb101  1  0.47637986  0.02637463  0.25170371  1
  Rb  Rb102  1  0.49792471  0.99839116  0.52617105  1
  Rb  Rb103  1  0.49858595  0.00272500  0.75951559  1
  Rb  Rb104  1  0.27986417  0.24809136  0.01752110  1
  Rb  Rb105  1  0.22348519  0.22541150  0.25019591  1
  Rb  Rb106  1  0.23743148  0.24042591  0.48859158  1
  Rb  Rb107  1  0.23839206  0.25850217  0.73544595  1
  Rb  Rb108  1  0.00261735  0.49886647  0.02712526  1
  Rb  Rb109  1  0.97343796  0.52733453  0.25035642  1
  Rb  Rb110  1  -0.00006767  0.49862569  0.52907978  1
  Rb  Rb111  1  0.00245621  0.50374362  0.76056277  1
  Rb  Rb112  1  0.77452260  0.27718852  0.99234291  1
  Rb  Rb113  1  0.74545291  0.24064974  0.27680119  1
  Rb  Rb114  1  0.74199703  0.22916454  0.51268005  1
  Rb  Rb115  1  0.72675815  0.27237017  0.75536599  1
  Rb  Rb116  1  0.50719418  0.49518271  0.99066129  1
  Rb  Rb117  1  0.50118729  0.49763967  0.27239466  1
  Rb  Rb118  1  0.49541164  0.50990902  0.49469085  1
  Rb  Rb119  1  0.50081873  0.50186484  0.72248304  1
  Rb  Rb120  1  0.22824347  0.72331467  0.99385174  1
  Rb  Rb121  1  0.22825717  0.72489074  0.23692428  1
  Rb  Rb122  1  0.22882173  0.73629291  0.51407947  1
  Rb  Rb123  1  0.22533737  0.77682993  0.75571558  1
  Rb  Rb124  1  0.71486412  0.76210300  0.00657874  1
  Rb  Rb125  1  0.72323760  0.72366950  0.24963540  1
  Rb  Rb126  1  0.73656754  0.75792503  0.48998208  1
  Rb  Rb127  1  0.73478940  0.76267999  0.73604997  1
  Sr  Sr128  1  0.00035666  0.25095790  0.12328982  1
  Sr  Sr129  1  0.00015175  0.25231529  0.37490325  1
  Sr  Sr130  1  0.99536623  0.24651814  0.62373074  1
  Sr  Sr131  1  -0.00020272  0.25206629  0.87134788  1
  Sr  Sr132  1  0.50716847  0.25312778  0.12479753  1
  Sr  Sr133  1  0.50322786  0.24843245  0.37599039  1
  Sr  Sr134  1  0.49747683  0.25008273  0.62456656  1
  Sr  Sr135  1  0.49656963  0.24989729  0.87448146  1
  Sr  Sr136  1  0.25424508  0.49805629  0.12492803  1
  Sr  Sr137  1  0.24978614  0.50132562  0.37535682  1
  Sr  Sr138  1  0.24841169  0.49681320  0.62660361  1
  Sr  Sr139  1  0.25203809  0.49612757  0.87424156  1
  Sr  Sr140  1  0.00140237  0.75237284  0.12364127  1
  Sr  Sr141  1  0.00256187  0.75058483  0.37622921  1
  Sr  Sr142  1  0.99719986  0.74988565  0.62539870  1
  Sr  Sr143  1  -0.00062967  0.74949113  0.87438528  1
  Sr  Sr144  1  0.74910991  0.50078960  0.12178797  1
  Sr  Sr145  1  0.75415200  0.49822861  0.37556047  1
  Sr  Sr146  1  0.74944299  0.50083027  0.62307366  1
  Sr  Sr147  1  0.75048513  0.50564636  0.87265465  1
  Sr  Sr148  1  0.49699709  0.75037415  0.12498610  1
  Sr  Sr149  1  0.49809670  0.75280224  0.37490589  1
  Sr  Sr150  1  0.49836660  0.75052104  0.62567123  1
  Sr  Sr151  1  0.49839053  0.74964655  0.87446913  1
  Sr  Sr152  1  0.25176847  0.99875521  0.12252493  1
  Sr  Sr153  1  0.25168135  -0.00200666  0.37569513  1
  Sr  Sr154  1  0.24742299  0.00090880  0.62400032  1
  Sr  Sr155  1  0.25183875  0.00316104  0.87471426  1
  Sr  Sr156  1  0.75120674  0.00036764  0.12628545  1
  Sr  Sr157  1  0.75094054  0.99709890  0.37509169  1
  Sr  Sr158  1  0.75198288  -0.00058802  0.62534145  1
  Sr  Sr159  1  0.74734499  -0.00029348  0.87389536  1
