# generated using pymatgen
data_RbTlCl3
_symmetry_space_group_name_H-M   'P 1'
_cell_length_a   15.78789696
_cell_length_b   15.78789696
_cell_length_c   22.32745700
_cell_angle_alpha   90.00000000
_cell_angle_beta   90.00000000
_cell_angle_gamma   90.00000000
_symmetry_Int_Tables_number   1
_chemical_formula_structural   RbTlCl3
_chemical_formula_sum   'Rb32 Tl32 Cl96'
_cell_volume   5565.29036368
_cell_formula_units_Z   32
loop_
 _symmetry_equiv_pos_site_id
 _symmetry_equiv_pos_as_xyz
  1  'x, y, z'
loop_
 _atom_site_type_symbol
 _atom_site_label
 _atom_site_symmetry_multiplicity
 _atom_site_fract_x
 _atom_site_fract_y
 _atom_site_fract_z
 _atom_site_occupancy
  Rb  Rb0  1  0.01171816  0.99258474  0.99754865  1
  Rb  Rb1  1  0.99183757  0.98934394  0.25088268  1
  Rb  Rb2  1  0.97724989  0.99033212  0.52299819  1
  Rb  Rb3  1  0.98485394  0.99322202  0.76939799  1
  Rb  Rb4  1  0.49049357  0.02842014  0.99138321  1
  Rb  Rb5  1  0.50388390  0.99484483  0.25682133  1
  Rb  Rb6  1  0.52363671  0.02422709  0.48626620  1
  Rb  Rb7  1  0.49998384  0.01632697  0.72314938  1
  Rb  Rb8  1  0.21722312  0.21578092  0.99298299  1
  Rb  Rb9  1  0.23444092  0.24038228  0.24034562  1
  Rb  Rb10  1  0.24195078  0.23788860  0.51079275  1
  Rb  Rb11  1  0.23800524  0.23052807  0.77804576  1
  Rb  Rb12  1  0.01439911  0.53441574  0.00100546  1
  Rb  Rb13  1  0.01924370  0.49605927  0.24620705  1
  Rb  Rb14  1  0.01669508  0.50363328  0.48444847  1
  Rb  Rb15  1  0.00042463  0.50487249  0.73806862  1
  Rb  Rb16  1  0.76225564  0.25249920  0.02378958  1
  Rb  Rb17  1  0.79684274  0.29377107  0.25491633  1
  Rb  Rb18  1  0.77024726  0.27193767  0.48939065  1
  Rb  Rb19  1  0.76594805  0.24455983  0.73669682  1
  Rb  Rb20  1  0.50147949  0.48656574  0.01067305  1
  Rb  Rb21  1  0.47135510  0.48035325  0.26151800  1
  Rb  Rb22  1  0.49777254  0.49764448  0.52922173  1
  Rb  Rb23  1  0.47287947  0.46750290  0.76127724  1
  Rb  Rb24  1  0.27359428  0.76908759  0.01735981  1
  Rb  Rb25  1  0.21277101  0.71504471  0.25011287  1
  Rb  Rb26  1  0.26247117  0.75149278  0.47018446  1
  Rb  Rb27  1  0.27104517  0.76763163  0.73493518  1
  Rb  Rb28  1  0.78426574  0.79347260  0.00387977  1
  Rb  Rb29  1  0.74649904  0.72168034  0.23302500  1
  Rb  Rb30  1  0.72362326  0.74954455  0.50899986  1
  Rb  Rb31  1  0.72569548  0.74518525  0.75660881  1
  Tl  Tl32  1  0.00747748  0.24593559  0.12530865  1
  Tl  Tl33  1  0.00751051  0.24327129  0.37943828  1
  Tl  Tl34  1  0.00584784  0.25255842  0.63066490  1
  Tl  Tl35  1  0.99083112  0.25252400  0.87850840  1
  Tl  Tl36  1  0.51116577  0.24739227  0.13275734  1
  Tl  Tl37  1  0.51316503  0.25310535  0.37570103  1
  Tl  Tl38  1  0.49187849  0.25308779  0.62457775  1
  Tl  Tl39  1  0.50020202  0.24705513  0.87540834  1
  Tl  Tl40  1  0.25607380  0.49297354  0.12187282  1
  Tl  Tl41  1  0.25625474  0.49401953  0.38280541  1
  Tl  Tl42  1  0.24602170  0.50357373  0.63305103  1
  Tl  Tl43  1  0.24438997  0.50557334  0.87421447  1
  Tl  Tl44  1  0.00359881  0.75661214  0.12472347  1
  Tl  Tl45  1  0.99880973  0.75752833  0.37847827  1
  Tl  Tl46  1  0.99753838  0.74849461  0.62641249  1
  Tl  Tl47  1  0.99612788  0.74501920  0.87222323  1
  Tl  Tl48  1  0.75544420  0.50092362  0.11856680  1
  Tl  Tl49  1  0.75703499  0.51171437  0.37282774  1
  Tl  Tl50  1  0.75188852  0.50148056  0.62583961  1
  Tl  Tl51  1  0.74092815  0.48641629  0.86672973  1
  Tl  Tl52  1  0.50426213  0.73755014  0.12985176  1
  Tl  Tl53  1  0.50040214  0.74827985  0.37002699  1
  Tl  Tl54  1  0.48879756  0.75812855  0.62298532  1
  Tl  Tl55  1  0.49772863  0.74642570  0.87532167  1
  Tl  Tl56  1  0.26824601  0.00114651  0.12758351  1
  Tl  Tl57  1  0.25374752  0.00354217  0.37507893  1
  Tl  Tl58  1  0.23805322  0.00270596  0.61874235  1
  Tl  Tl59  1  0.25250202  0.98725710  0.87207432  1
  Tl  Tl60  1  0.74749718  0.00235061  0.12939859  1
  Tl  Tl61  1  0.75442635  0.99939070  0.37137404  1
  Tl  Tl62  1  0.74639002  0.00211817  0.62156501  1
  Tl  Tl63  1  0.74103529  -0.00573335  0.87137269  1
  Cl  Cl64  1  -0.00574554  0.20098292  0.01027700  1
  Cl  Cl65  1  0.01395888  0.28595934  0.24170793  1
  Cl  Cl66  1  0.99191522  0.21851416  0.51607599  1
  Cl  Cl67  1  0.00584528  0.29013113  0.74526789  1
  Cl  Cl68  1  0.54000631  0.24684427  0.01454718  1
  Cl  Cl69  1  0.46186803  0.24768667  0.25778095  1
  Cl  Cl70  1  0.56081838  0.24289465  0.48874987  1
  Cl  Cl71  1  0.44057165  0.25066324  0.74918221  1
  Cl  Cl72  1  0.23992567  0.55784217  0.98631288  1
  Cl  Cl73  1  0.24831169  0.45867867  0.25140111  1
  Cl  Cl74  1  0.23613226  0.54952154  0.51757328  1
  Cl  Cl75  1  0.23578134  0.44832586  0.75721291  1
  Cl  Cl76  1  0.04960129  0.76190473  0.98493722  1
  Cl  Cl77  1  0.96322073  0.76205568  0.26246780  1
  Cl  Cl78  1  0.04809575  0.76570201  0.49146714  1
  Cl  Cl79  1  0.94016389  0.73164568  0.76140973  1
  Cl  Cl80  1  0.70693366  0.45701921  0.98203241  1
  Cl  Cl81  1  0.81075574  0.51279948  0.24765241  1
  Cl  Cl82  1  0.71633247  0.48592222  0.51014439  1
  Cl  Cl83  1  0.78950304  0.51992736  0.74381607  1
  Cl  Cl84  1  0.49106390  0.70300089  0.01560572  1
  Cl  Cl85  1  0.51604647  0.78873933  0.24434101  1
  Cl  Cl86  1  0.49202790  0.70692019  0.48700691  1
  Cl  Cl87  1  0.48808708  0.80914794  0.75197331  1
  Cl  Cl88  1  0.22220291  0.99569656  0.01386350  1
  Cl  Cl89  1  0.29810144  0.02587400  0.24127094  1
  Cl  Cl90  1  0.18762610  0.02479486  0.50663516  1
  Cl  Cl91  1  0.28063153  0.00160180  0.73364565  1
  Cl  Cl92  1  0.73963248  0.02355591  0.98879101  1
  Cl  Cl93  1  0.74378821  0.94195183  0.26091801  1
  Cl  Cl94  1  0.76285688  0.05040229  0.48387056  1
  Cl  Cl95  1  0.76572836  0.95852174  0.75692882  1
  Cl  Cl96  1  0.10826898  0.10648982  0.14515737  1
  Cl  Cl97  1  0.12045778  0.11036150  0.33981586  1
  Cl  Cl98  1  0.15589780  0.16615335  0.64270713  1
  Cl  Cl99  1  0.10253394  0.10813653  0.86879165  1
  Cl  Cl100  1  0.58038569  0.09852695  0.14125974  1
  Cl  Cl101  1  0.61234862  0.10618359  0.35457986  1
  Cl  Cl102  1  0.63244279  0.14546029  0.65010672  1
  Cl  Cl103  1  0.59580012  0.07356686  0.85444511  1
  Cl  Cl104  1  0.40735210  0.37607427  0.12512593  1
  Cl  Cl105  1  0.42505828  0.39393165  0.39877278  1
  Cl  Cl106  1  0.34294047  0.37260209  0.60799827  1
  Cl  Cl107  1  0.38442088  0.41338339  0.89433766  1
  Cl  Cl108  1  0.11154929  0.60138797  0.13738678  1
  Cl  Cl109  1  0.09369300  0.61645202  0.36068543  1
  Cl  Cl110  1  0.13981984  0.62433469  0.66206216  1
  Cl  Cl111  1  0.09244830  0.59624886  0.85756951  1
  Cl  Cl112  1  0.91410650  0.38289551  0.09993921  1
  Cl  Cl113  1  0.88517214  0.38630726  0.39080564  1
  Cl  Cl114  1  0.85117841  0.35058203  0.62085534  1
  Cl  Cl115  1  0.88746471  0.41529812  0.87568763  1
  Cl  Cl116  1  0.58300150  0.59361193  0.15612476  1
  Cl  Cl117  1  0.62438911  0.64001563  0.35385823  1
  Cl  Cl118  1  0.65942606  0.64323611  0.63135092  1
  Cl  Cl119  1  0.62995423  0.60615079  0.85734595  1
  Cl  Cl120  1  0.40683337  0.90519387  0.10736351  1
  Cl  Cl121  1  0.40787533  0.88706022  0.38417681  1
  Cl  Cl122  1  0.31408744  0.85489223  0.59750593  1
  Cl  Cl123  1  0.38736084  0.87486069  0.91673821  1
  Cl  Cl124  1  0.90255448  0.91231380  0.10839548  1
  Cl  Cl125  1  0.90328711  0.90617580  0.39257209  1
  Cl  Cl126  1  0.85484529  0.85197991  0.59747106  1
  Cl  Cl127  1  0.89944987  0.89320754  0.89220943  1
  Cl  Cl128  1  0.86528236  0.15873733  0.14688540  1
  Cl  Cl129  1  0.85414831  0.12214538  0.33624945  1
  Cl  Cl130  1  0.91035625  0.11941386  0.65455448  1
  Cl  Cl131  1  0.84115730  0.12870728  0.85723411  1
  Cl  Cl132  1  0.34731527  0.14735230  0.10505418  1
  Cl  Cl133  1  0.38529631  0.14990119  0.39840321  1
  Cl  Cl134  1  0.37465925  0.09599748  0.59431236  1
  Cl  Cl135  1  0.35147475  0.13900709  0.89781179  1
  Cl  Cl136  1  0.14820363  0.33386510  0.10617966  1
  Cl  Cl137  1  0.14286802  0.35525972  0.41211007  1
  Cl  Cl138  1  0.09524828  0.39527441  0.60860021  1
  Cl  Cl139  1  0.14572596  0.37368846  0.89946044  1
  Cl  Cl140  1  0.85413537  0.65620296  0.10052898  1
  Cl  Cl141  1  0.86708919  0.66396238  0.40842389  1
  Cl  Cl142  1  0.89575494  0.58110894  0.60333800  1
  Cl  Cl143  1  0.87108538  0.64912262  0.91041839  1
  Cl  Cl144  1  0.65119906  0.33592685  0.15092176  1
  Cl  Cl145  1  0.64127230  0.35064556  0.34564354  1
  Cl  Cl146  1  0.61602354  0.40761896  0.64878067  1
  Cl  Cl147  1  0.64707031  0.36207401  0.82638267  1
  Cl  Cl148  1  0.35317033  0.67106686  0.14572974  1
  Cl  Cl149  1  0.36668498  0.65048034  0.34496154  1
  Cl  Cl150  1  0.38533712  0.59372255  0.65520834  1
  Cl  Cl151  1  0.34071781  0.63017733  0.83733921  1
  Cl  Cl152  1  0.16772005  0.87272975  0.14881968  1
  Cl  Cl153  1  0.13723124  0.85098294  0.35268952  1
  Cl  Cl154  1  0.09390822  0.92569544  0.64574458  1
  Cl  Cl155  1  0.11922302  0.84152347  0.83394069  1
  Cl  Cl156  1  0.63972859  0.83215025  0.11297785  1
  Cl  Cl157  1  0.64469862  0.87919282  0.40258697  1
  Cl  Cl158  1  0.59499519  0.90519730  0.59573140  1
  Cl  Cl159  1  0.66574197  0.84680615  0.88791272  1
