# generated using pymatgen
data_RbTlF3
_symmetry_space_group_name_H-M   'P 1'
_cell_length_a   13.24183878
_cell_length_b   13.24183878
_cell_length_c   18.72678800
_cell_angle_alpha   90.00000000
_cell_angle_beta   90.00000000
_cell_angle_gamma   90.00000000
_symmetry_Int_Tables_number   1
_chemical_formula_structural   RbTlF3
_chemical_formula_sum   'Rb32 Tl32 F96'
_cell_volume   3283.67288179
_cell_formula_units_Z   32
loop_
 _symmetry_equiv_pos_site_id
 _symmetry_equiv_pos_as_xyz
  1  'x, y, z'
loop_
 _atom_site_type_symbol
 _atom_site_label
 _atom_site_symmetry_multiplicity
 _atom_site_fract_x
 _atom_site_fract_y
 _atom_site_fract_z
 _atom_site_occupancy
  Rb  Rb0  1  0.99395484  0.99367468  0.99452439  1
  Rb  Rb1  1  0.99196335  0.99925709  0.25356302  1
  Rb  Rb2  1  0.00898823  0.99822152  0.50507465  1
  Rb  Rb3  1  0.99471423  0.99920104  0.76644815  1
  Rb  Rb4  1  0.49892797  0.99349673  0.99550652  1
  Rb  Rb5  1  0.48353653  0.99395144  0.24011776  1
  Rb  Rb6  1  0.48391183  0.02404508  0.49549280  1
  Rb  Rb7  1  0.49433726  0.00667767  0.74540936  1
  Rb  Rb8  1  0.23152621  0.24467287  0.99149034  1
  Rb  Rb9  1  0.22469238  0.24096389  0.26492994  1
  Rb  Rb10  1  0.26347189  0.28104856  0.50358912  1
  Rb  Rb11  1  0.26445983  0.26935760  0.73609080  1
  Rb  Rb12  1  0.00485330  0.49497018  0.00410382  1
  Rb  Rb13  1  0.99520250  0.51342929  0.25113457  1
  Rb  Rb14  1  0.00268388  0.49908092  0.48141561  1
  Rb  Rb15  1  0.00571779  0.50147073  0.74612100  1
  Rb  Rb16  1  0.77307026  0.25882441  0.98463678  1
  Rb  Rb17  1  0.76651996  0.25510215  0.25705218  1
  Rb  Rb18  1  0.73792223  0.23042137  0.51334307  1
  Rb  Rb19  1  0.73857819  0.21994693  0.74631374  1
  Rb  Rb20  1  0.51048731  0.50612927  0.00499766  1
  Rb  Rb21  1  0.49838490  0.50634841  0.25332352  1
  Rb  Rb22  1  0.51090942  0.48970979  0.50568700  1
  Rb  Rb23  1  0.52771382  0.47547576  0.75102863  1
  Rb  Rb24  1  0.25590134  0.73486561  0.02182433  1
  Rb  Rb25  1  0.24436257  0.73690896  0.24938925  1
  Rb  Rb26  1  0.24266061  0.75985716  0.49268669  1
  Rb  Rb27  1  0.26338317  0.74962220  0.75415326  1
  Rb  Rb28  1  0.74849673  0.76226381  -0.00012276  1
  Rb  Rb29  1  0.73892219  0.76586568  0.22968091  1
  Rb  Rb30  1  0.73266639  0.74748012  0.49558518  1
  Rb  Rb31  1  0.75965063  0.74062285  0.75848627  1
  Tl  Tl32  1  -0.00005418  0.24731630  0.12605543  1
  Tl  Tl33  1  0.99078194  0.24639000  0.39072245  1
  Tl  Tl34  1  0.00167605  0.24962635  0.62499750  1
  Tl  Tl35  1  0.00831282  0.25249651  0.85912100  1
  Tl  Tl36  1  0.49889413  0.24978724  0.12394064  1
  Tl  Tl37  1  0.49455116  0.25011762  0.35732282  1
  Tl  Tl38  1  0.50202581  0.24851888  0.62535784  1
  Tl  Tl39  1  0.50286063  0.25321842  0.89134296  1
  Tl  Tl40  1  0.25770623  0.46737564  0.12648530  1
  Tl  Tl41  1  0.24842442  0.50725566  0.37563202  1
  Tl  Tl42  1  0.25705403  0.52556042  0.62324446  1
  Tl  Tl43  1  0.24887739  0.50161171  0.87681083  1
  Tl  Tl44  1  0.99726579  0.75209996  0.12446217  1
  Tl  Tl45  1  0.98421430  0.75813916  0.37292739  1
  Tl  Tl46  1  0.00126073  0.74805890  0.62489578  1
  Tl  Tl47  1  0.01423960  0.74295980  0.87868457  1
  Tl  Tl48  1  0.75371921  0.49621764  0.12642884  1
  Tl  Tl49  1  0.74360606  0.50105372  0.37400096  1
  Tl  Tl50  1  0.77299390  0.49300827  0.61535397  1
  Tl  Tl51  1  0.75751253  0.49687240  0.87482233  1
  Tl  Tl52  1  0.49819273  0.74900147  0.12461499  1
  Tl  Tl53  1  0.50212792  0.76034638  0.38244748  1
  Tl  Tl54  1  0.50015101  0.74862891  0.62504034  1
  Tl  Tl55  1  0.49281017  0.73682740  0.86694422  1
  Tl  Tl56  1  0.24108314  0.00281265  0.12200615  1
  Tl  Tl57  1  0.24451143  0.00331895  0.37534422  1
  Tl  Tl58  1  0.23291393  0.00569914  0.63594794  1
  Tl  Tl59  1  0.25723697  0.99918940  0.87468010  1
  Tl  Tl60  1  0.74261251  0.02792136  0.12458985  1
  Tl  Tl61  1  0.74126488  0.00025490  0.37355122  1
  Tl  Tl62  1  0.74827559  0.97314651  0.62344602  1
  Tl  Tl63  1  0.74740210  0.99342155  0.87336761  1
  F  F64  1  0.00611720  0.26120812  0.00571059  1
  F  F65  1  0.99282756  0.23010759  0.24611184  1
  F  F66  1  0.07322922  0.19746400  0.52257234  1
  F  F67  1  0.93004244  0.30356840  0.72703168  1
  F  F68  1  0.57846872  0.20286284  0.02267713  1
  F  F69  1  0.41920844  0.29698070  0.22529172  1
  F  F70  1  0.51846011  0.25316426  0.50565028  1
  F  F71  1  0.48432118  0.24632115  0.74494543  1
  F  F72  1  0.22395285  0.49402051  0.99486354  1
  F  F73  1  0.27772520  0.51264785  0.25868567  1
  F  F74  1  0.21342134  0.50232336  0.49236288  1
  F  F75  1  0.24132069  0.51829663  0.75858557  1
  F  F76  1  0.04863249  0.78873602  0.01357331  1
  F  F77  1  0.94787415  0.72144926  0.23679674  1
  F  F78  1  0.02396571  0.77240384  0.50734721  1
  F  F79  1  0.97968344  0.72542469  0.74275623  1
  F  F80  1  0.72601535  0.46920639  0.99144359  1
  F  F81  1  0.75660874  0.55816290  0.26191743  1
  F  F82  1  0.71873386  0.44068379  0.48438937  1
  F  F83  1  0.77534231  0.52296545  0.75686868  1
  F  F84  1  0.48613900  0.76870970  0.00599408  1
  F  F85  1  0.51276575  0.72840464  0.24300317  1
  F  F86  1  0.53576610  0.82177684  0.51976895  1
  F  F87  1  0.46030316  0.67296169  0.72878062  1
  F  F88  1  0.25010406  0.94207107  0.98688337  1
  F  F89  1  0.26729436  0.03063994  0.25781749  1
  F  F90  1  0.23189020  0.97665981  0.49356482  1
  F  F91  1  0.28646374  0.06030982  0.76498001  1
  F  F92  1  0.72297778  0.98700316  0.99096985  1
  F  F93  1  0.77690573  0.99348013  0.25647163  1
  F  F94  1  0.70839943  0.00558717  0.49046118  1
  F  F95  1  0.78034949  0.00190456  0.75622065  1
  F  F96  1  0.15866366  0.18874711  0.12678222  1
  F  F97  1  0.09908333  0.08886272  0.36624541  1
  F  F98  1  0.10029622  0.14709608  0.69009688  1
  F  F99  1  0.12078212  0.09496750  0.89729547  1
  F  F100  1  0.60673798  0.15973663  0.19067804  1
  F  F101  1  0.58859110  0.07006848  0.36006343  1
  F  F102  1  0.60438730  0.11360948  0.63147818  1
  F  F103  1  0.61570658  0.09732592  0.85541089  1
  F  F104  1  0.39231241  0.34027621  0.05628803  1
  F  F105  1  0.38270372  0.40767070  0.39679397  1
  F  F106  1  0.40163233  0.38529198  0.62299418  1
  F  F107  1  0.40497045  0.43663783  0.87578505  1
  F  F108  1  0.12432422  0.63838381  0.13484632  1
  F  F109  1  0.10960942  0.60418068  0.36039377  1
  F  F110  1  0.16370210  0.70003202  0.62928611  1
  F  F111  1  0.08996047  0.56182052  0.87583263  1
  F  F112  1  0.84318955  0.31108538  0.12266394  1
  F  F113  1  0.87934386  0.40434186  0.35146614  1
  F  F114  1  0.90153470  0.35126545  0.56045896  1
  F  F115  1  0.89741268  0.40510118  0.89049947  1
  F  F116  1  0.63425835  0.65084168  0.10549920  1
  F  F117  1  0.61033902  0.60001856  0.39755152  1
  F  F118  1  0.62045061  0.63052864  0.60464158  1
  F  F119  1  0.61112055  0.58088590  0.87222410  1
  F  F120  1  0.36189731  0.84668002  0.14418220  1
  F  F121  1  0.39211246  0.92170135  0.37470695  1
  F  F122  1  0.38016533  0.86599303  0.64756443  1
  F  F123  1  0.39034925  0.89944683  0.85189023  1
  F  F124  1  0.86690064  0.86145727  0.11268955  1
  F  F125  1  0.89592369  0.93522057  0.39039397  1
  F  F126  1  0.83859765  0.79466898  0.61897657  1
  F  F127  1  0.88376507  0.89268817  0.88504677  1
  F  F128  1  0.93641105  0.09111742  0.11857863  1
  F  F129  1  0.81274405  0.15448803  0.38304111  1
  F  F130  1  0.88081827  0.13046251  0.61309904  1
  F  F131  1  0.85640311  0.12413556  0.88300759  1
  F  F132  1  0.41049284  0.10472146  0.11407039  1
  F  F133  1  0.32616024  0.15045023  0.39489080  1
  F  F134  1  0.36500395  0.15082217  0.60830700  1
  F  F135  1  0.36268161  0.11913190  0.91652967  1
  F  F136  1  0.06466597  0.40289513  0.13636385  1
  F  F137  1  0.14444995  0.37247630  0.36839693  1
  F  F138  1  0.12466401  0.36645495  0.63544925  1
  F  F139  1  0.18564929  0.34406417  0.86376777  1
  F  F140  1  0.89118574  0.63316832  0.08350339  1
  F  F141  1  0.85221699  0.61658292  0.41741616  1
  F  F142  1  0.95491239  0.58625439  0.61076882  1
  F  F143  1  0.84133830  0.64204590  0.89342129  1
  F  F144  1  0.58514775  0.39615541  0.13386389  1
  F  F145  1  0.63716627  0.38296688  0.33110326  1
  F  F146  1  0.63899411  0.34739516  0.64072283  1
  F  F147  1  0.67205230  0.35255031  0.85214811  1
  F  F148  1  0.39542726  0.61333389  0.11600731  1
  F  F149  1  0.33812035  0.65020489  0.38036116  1
  F  F150  1  0.39298758  0.64778786  0.56541407  1
  F  F151  1  0.30987753  0.65896856  0.88940905  1
  F  F152  1  0.10496654  0.86771379  0.16787355  1
  F  F153  1  0.15817197  0.85900556  0.35828949  1
  F  F154  1  0.04945968  0.90928030  0.63977514  1
  F  F155  1  0.14741341  0.88554368  0.83097532  1
  F  F156  1  0.60059815  0.88509022  0.13210438  1
  F  F157  1  0.68307476  0.84158720  0.36338500  1
  F  F158  1  0.61038124  0.85013435  0.68127942  1
  F  F159  1  0.65302374  0.85353173  0.86698210  1
