# generated using pymatgen
data_RbTlBr3
_symmetry_space_group_name_H-M   'P 1'
_cell_length_a   16.57165411
_cell_length_b   16.57165411
_cell_length_c   23.43585800
_cell_angle_alpha   90.00000000
_cell_angle_beta   90.00000000
_cell_angle_gamma   90.00000000
_symmetry_Int_Tables_number   1
_chemical_formula_structural   RbTlBr3
_chemical_formula_sum   'Rb32 Tl32 Br96'
_cell_volume   6435.94876422
_cell_formula_units_Z   32
loop_
 _symmetry_equiv_pos_site_id
 _symmetry_equiv_pos_as_xyz
  1  'x, y, z'
loop_
 _atom_site_type_symbol
 _atom_site_label
 _atom_site_symmetry_multiplicity
 _atom_site_fract_x
 _atom_site_fract_y
 _atom_site_fract_z
 _atom_site_occupancy
  Br  Br0  1  0.96701765  0.24205455  0.99622738  1
  Br  Br1  1  0.02228638  0.25522313  0.25481741  1
  Br  Br2  1  0.96878548  0.25151437  0.49731217  1
  Br  Br3  1  0.03283331  0.25446161  0.75198034  1
  Br  Br4  1  0.50718846  0.28700247  0.00666865  1
  Br  Br5  1  0.46686791  0.22385904  0.23709121  1
  Br  Br6  1  0.51084278  0.29657198  0.51314383  1
  Br  Br7  1  0.50698151  0.19632650  0.74000535  1
  Br  Br8  1  0.24720885  0.52272378  0.00940793  1
  Br  Br9  1  0.26606555  0.47757217  0.24293700  1
  Br  Br10  1  0.30544495  0.50785038  0.51714475  1
  Br  Br11  1  0.19692973  0.50166019  0.74079329  1
  Br  Br12  1  0.00352943  0.78408138  0.99105085  1
  Br  Br13  1  0.97738364  0.71758509  0.25762426  1
  Br  Br14  1  0.00607529  0.78928332  0.49378659  1
  Br  Br15  1  0.98812813  0.70588677  0.75587409  1
  Br  Br16  1  0.74640128  0.44946789  0.99114616  1
  Br  Br17  1  0.76439459  0.54539681  0.25328003  1
  Br  Br18  1  0.73908746  0.45758119  0.48772580  1
  Br  Br19  1  0.75448979  0.54785720  0.75749508  1
  Br  Br20  1  0.46911155  0.74107854  0.99815036  1
  Br  Br21  1  0.51122684  0.74423216  0.24850980  1
  Br  Br22  1  0.46905707  0.74998917  0.50053337  1
  Br  Br23  1  0.52905818  0.74974714  0.75071761  1
  Br  Br24  1  0.24486251  0.97290873  0.99922521  1
  Br  Br25  1  0.25026758  0.01962348  0.24674161  1
  Br  Br26  1  0.25672359  0.98362736  0.49795155  1
  Br  Br27  1  0.25668729  0.02683686  0.74430171  1
  Br  Br28  1  0.80012030  -0.00286593  0.01308517  1
  Br  Br29  1  0.70478407  0.98709486  0.24619356  1
  Br  Br30  1  0.80217957  0.00925808  0.51121503  1
  Br  Br31  1  0.70077956  0.00361069  0.74167106  1
  Br  Br32  1  0.15353993  0.14731960  0.10832668  1
  Br  Br33  1  0.08794183  0.09457974  0.38293073  1
  Br  Br34  1  0.12063741  0.11425806  0.61699132  1
  Br  Br35  1  0.13287721  0.13634471  0.89129692  1
  Br  Br36  1  0.66112011  0.13418551  0.11928592  1
  Br  Br37  1  0.60986320  0.11299481  0.40326579  1
  Br  Br38  1  0.61483312  0.10609068  0.59185834  1
  Br  Br39  1  0.65324897  0.14848690  0.89108092  1
  Br  Br40  1  0.32091542  0.33453717  0.11404742  1
  Br  Br41  1  0.40688388  0.41819354  0.38087702  1
  Br  Br42  1  0.40103883  0.39266736  0.66191282  1
  Br  Br43  1  0.33105538  0.33095590  0.86332139  1
  Br  Br44  1  0.18519842  0.66884396  0.14034498  1
  Br  Br45  1  0.08767989  0.61049700  0.39544121  1
  Br  Br46  1  0.11059018  0.60185251  0.58871238  1
  Br  Br47  1  0.12881791  0.64973784  0.88353541  1
  Br  Br48  1  0.85273658  0.34969178  0.13522404  1
  Br  Br49  1  0.89969116  0.41514819  0.36399229  1
  Br  Br50  1  0.89596277  0.40047620  0.63245507  1
  Br  Br51  1  0.84719939  0.36025485  0.84891985  1
  Br  Br52  1  0.63467761  0.63309478  0.10666612  1
  Br  Br53  1  0.61470116  0.60039655  0.37688900  1
  Br  Br54  1  0.60042242  0.60559634  0.61708311  1
  Br  Br55  1  0.65714623  0.63635367  0.90555414  1
  Br  Br56  1  0.36751398  0.87120764  0.12966772  1
  Br  Br57  1  0.40937913  0.91544128  0.35427524  1
  Br  Br58  1  0.40719010  0.90896015  0.63139301  1
  Br  Br59  1  0.34463078  0.83449872  0.86099040  1
  Br  Br60  1  0.82976549  0.84388088  0.14354198  1
  Br  Br61  1  0.88963503  0.87835697  0.36465077  1
  Br  Br62  1  0.88663774  0.91343089  0.65301937  1
  Br  Br63  1  0.84518620  0.82523650  0.86644147  1
  Br  Br64  1  0.89173764  0.08569891  0.16041916  1
  Br  Br65  1  0.85540744  0.15618298  0.36310173  1
  Br  Br66  1  0.84316956  0.15048246  0.64758054  1
  Br  Br67  1  0.89355362  0.11355662  0.85694889  1
  Br  Br68  1  0.41170625  0.10936959  0.09750233  1
  Br  Br69  1  0.33372583  0.17362032  0.37650907  1
  Br  Br70  1  0.36643490  0.16353951  0.60517217  1
  Br  Br71  1  0.40380983  0.08894641  0.88827175  1
  Br  Br72  1  0.10567506  0.42322673  0.12583837  1
  Br  Br73  1  0.13055150  0.35862217  0.38810998  1
  Br  Br74  1  0.17227304  0.35822966  0.60958588  1
  Br  Br75  1  0.08520061  0.39502596  0.88652529  1
  Br  Br76  1  0.89686452  0.59426907  0.10753399  1
  Br  Br77  1  0.84720392  0.64283878  0.40020984  1
  Br  Br78  1  0.84788330  0.65182344  0.60327185  1
  Br  Br79  1  0.89727401  0.58558199  0.89524608  1
  Br  Br80  1  0.59268555  0.37801642  0.14685974  1
  Br  Br81  1  0.65861834  0.36570925  0.33716214  1
  Br  Br82  1  0.64372970  0.34360956  0.64718226  1
  Br  Br83  1  0.61144169  0.40818913  0.85407148  1
  Br  Br84  1  0.41136761  0.56798698  0.12753556  1
  Br  Br85  1  0.33929095  0.66292979  0.36846390  1
  Br  Br86  1  0.34562886  0.63621896  0.65794141  1
  Br  Br87  1  0.40747984  0.58562099  0.86714973  1
  Br  Br88  1  0.09957828  0.90428541  0.13420906  1
  Br  Br89  1  0.13810040  0.84972918  0.35643893  1
  Br  Br90  1  0.15727607  0.85625103  0.63200834  1
  Br  Br91  1  0.08456403  0.89167166  0.84570765  1
  Br  Br92  1  0.60901600  0.90057277  0.10018987  1
  Br  Br93  1  0.64603643  0.85337507  0.39555647  1
  Br  Br94  1  0.65745347  0.86676629  0.60500049  1
  Br  Br95  1  0.60660735  0.88088146  0.88869906  1
  Rb  Rb96  1  0.02124649  0.00908671  0.99521001  1
  Rb  Rb97  1  0.01723894  0.98635638  0.26244548  1
  Rb  Rb98  1  0.01878725  0.00551442  0.50865475  1
  Rb  Rb99  1  0.01628423  0.03548088  0.74253993  1
  Rb  Rb100  1  0.47452815  0.96215451  0.99385909  1
  Rb  Rb101  1  0.49388146  0.00230508  0.22173255  1
  Rb  Rb102  1  0.50833949  0.97091270  0.49523177  1
  Rb  Rb103  1  0.48523246  0.97648246  0.76828995  1
  Rb  Rb104  1  0.28360236  0.21285764  0.98655665  1
  Rb  Rb105  1  0.24110534  0.25591174  0.24987450  1
  Rb  Rb106  1  0.28969096  0.29313119  0.49273559  1
  Rb  Rb107  1  0.25925316  0.25240975  0.73199322  1
  Rb  Rb108  1  0.97465818  0.46249927  0.00559430  1
  Rb  Rb109  1  0.97745288  0.49920854  0.23639733  1
  Rb  Rb110  1  0.95849563  0.50328864  0.49806179  1
  Rb  Rb111  1  0.97728467  0.48612620  0.76608813  1
  Rb  Rb112  1  0.75079011  0.23578504  0.00421498  1
  Rb  Rb113  1  0.75571603  0.22762349  0.23867453  1
  Rb  Rb114  1  0.73972699  0.23008782  0.49964468  1
  Rb  Rb115  1  0.72802628  0.22779522  0.76374103  1
  Rb  Rb116  1  0.52425332  0.51431067  0.99336775  1
  Rb  Rb117  1  0.50499602  0.50742106  0.26102853  1
  Rb  Rb118  1  0.51777428  0.51291039  0.49493674  1
  Rb  Rb119  1  0.51986376  0.52580486  0.74517977  1
  Rb  Rb120  1  0.24400846  0.74503923  0.99678390  1
  Rb  Rb121  1  0.27876823  0.78402501  0.25435864  1
  Rb  Rb122  1  0.22965448  0.74356380  0.49304371  1
  Rb  Rb123  1  0.21393075  0.74127240  0.75789974  1
  Rb  Rb124  1  0.75018043  0.77357386  0.00626869  1
  Rb  Rb125  1  0.74871625  0.75910692  0.27560673  1
  Rb  Rb126  1  0.78474686  0.78933475  0.49880223  1
  Rb  Rb127  1  0.75846611  0.76502999  0.72947589  1
  Tl  Tl128  1  0.99915166  0.24219403  0.12642476  1
  Tl  Tl129  1  0.00152290  0.24604164  0.37697214  1
  Tl  Tl130  1  0.00421476  0.25862240  0.62357673  1
  Tl  Tl131  1  0.00137036  0.24669135  0.87426948  1
  Tl  Tl132  1  0.47313161  0.26557192  0.12197138  1
  Tl  Tl133  1  0.50125940  0.25708712  0.37323276  1
  Tl  Tl134  1  0.49954510  0.26104152  0.62994544  1
  Tl  Tl135  1  0.49854954  0.24798555  0.87299333  1
  Tl  Tl136  1  0.25034890  0.51403745  0.12727384  1
  Tl  Tl137  1  0.24717951  0.50637924  0.37653042  1
  Tl  Tl138  1  0.24100225  0.51098423  0.62638832  1
  Tl  Tl139  1  0.24806480  0.48921272  0.87508531  1
  Tl  Tl140  1  0.00070621  0.74579874  0.12463815  1
  Tl  Tl141  1  0.00043676  0.74984897  0.37416150  1
  Tl  Tl142  1  0.99855191  0.75436386  0.62629805  1
  Tl  Tl143  1  0.99463086  0.75119558  0.87285449  1
  Tl  Tl144  1  0.74908372  0.49640401  0.12225987  1
  Tl  Tl145  1  0.75207631  0.49906331  0.36970026  1
  Tl  Tl146  1  0.74942390  0.50427989  0.62311776  1
  Tl  Tl147  1  0.75081738  0.50066343  0.87435614  1
  Tl  Tl148  1  0.50055158  0.74494158  0.12279818  1
  Tl  Tl149  1  0.49453417  0.75787617  0.37518051  1
  Tl  Tl150  1  0.49938684  0.75363732  0.62467816  1
  Tl  Tl151  1  0.49710524  0.73902942  0.87379450  1
  Tl  Tl152  1  0.24379948  -0.00024256  0.12299898  1
  Tl  Tl153  1  0.25720326  0.01435054  0.37413203  1
  Tl  Tl154  1  0.25722489  0.99876197  0.62205634  1
  Tl  Tl155  1  0.24996168  0.99259932  0.87017294  1
  Tl  Tl156  1  0.75257927  0.99296155  0.12932704  1
  Tl  Tl157  1  0.74682976  0.00536747  0.37822285  1
  Tl  Tl158  1  0.74873065  0.01111481  0.62682908  1
  Tl  Tl159  1  0.74991603  0.99736965  0.87798466  1
