# generated using pymatgen
data_RbZnBr3
_symmetry_space_group_name_H-M   'P 1'
_cell_length_a   15.06284805
_cell_length_b   15.06284805
_cell_length_c   21.30208500
_cell_angle_alpha   90.00000000
_cell_angle_beta   90.00000000
_cell_angle_gamma   90.00000000
_symmetry_Int_Tables_number   1
_chemical_formula_structural   RbZnBr3
_chemical_formula_sum   'Rb32 Zn32 Br96'
_cell_volume   4833.21710059
_cell_formula_units_Z   32
loop_
 _symmetry_equiv_pos_site_id
 _symmetry_equiv_pos_as_xyz
  1  'x, y, z'
loop_
 _atom_site_type_symbol
 _atom_site_label
 _atom_site_symmetry_multiplicity
 _atom_site_fract_x
 _atom_site_fract_y
 _atom_site_fract_z
 _atom_site_occupancy
  Br  Br0  1  0.02547252  0.19468903  0.00198380  1
  Br  Br1  1  0.00616009  0.21830120  0.27060066  1
  Br  Br2  1  0.98586051  0.23663412  0.52809007  1
  Br  Br3  1  0.07222966  0.24649338  0.72438178  1
  Br  Br4  1  0.47434238  0.22943273  0.02669080  1
  Br  Br5  1  0.55523307  0.23736295  0.21921635  1
  Br  Br6  1  0.50081965  0.25314684  0.50200583  1
  Br  Br7  1  0.52392733  0.28846426  0.75569574  1
  Br  Br8  1  0.22165415  0.55997283  0.01374311  1
  Br  Br9  1  0.25569601  0.44941917  0.26529481  1
  Br  Br10  1  0.29981429  0.51152249  0.46856742  1
  Br  Br11  1  0.23625352  0.48357136  0.74287508  1
  Br  Br12  1  0.98044137  0.76791564  0.96001985  1
  Br  Br13  1  0.99890697  0.76249673  0.25048188  1
  Br  Br14  1  0.90126030  0.68870362  0.49460123  1
  Br  Br15  1  0.03873035  0.75210745  0.75921657  1
  Br  Br16  1  0.76585184  0.53223771  0.00014255  1
  Br  Br17  1  0.76328303  0.50018106  0.21088114  1
  Br  Br18  1  0.77533716  0.48533915  0.49472059  1
  Br  Br19  1  0.67578716  0.50361391  0.75489178  1
  Br  Br20  1  0.43327961  0.77402556  0.01262915  1
  Br  Br21  1  0.56063816  0.78681147  0.24127859  1
  Br  Br22  1  0.46990302  0.77799047  0.51622498  1
  Br  Br23  1  0.48389834  0.72322233  0.72216960  1
  Br  Br24  1  0.25814913  0.00065150  0.01261315  1
  Br  Br25  1  0.21398244  0.96682603  0.28884196  1
  Br  Br26  1  0.27434821  0.96212271  0.48331863  1
  Br  Br27  1  0.23131476  0.03965860  0.73720716  1
  Br  Br28  1  0.81070225  0.98628610  0.96594483  1
  Br  Br29  1  0.72906273  0.02362904  0.24714742  1
  Br  Br30  1  0.73728032  0.00498933  0.51590326  1
  Br  Br31  1  0.69572039  0.06349844  0.78143116  1
  Br  Br32  1  0.12016616  0.04753315  0.15643814  1
  Br  Br33  1  0.10254956  0.10917434  0.40456884  1
  Br  Br34  1  0.14376483  0.09354383  0.59053917  1
  Br  Br35  1  0.19689510  0.16177684  0.88003996  1
  Br  Br36  1  0.67867501  0.11089380  0.07601474  1
  Br  Br37  1  0.65003961  0.17302035  0.37106357  1
  Br  Br38  1  0.61167705  0.14250686  0.62537069  1
  Br  Br39  1  0.67238549  0.16485139  0.91686050  1
  Br  Br40  1  0.35921899  0.40071678  0.11442335  1
  Br  Br41  1  0.41773871  0.33720309  0.34388712  1
  Br  Br42  1  0.43057439  0.42020372  0.61961671  1
  Br  Br43  1  0.33630451  0.39166673  0.90194489  1
  Br  Br44  1  0.12115068  0.57093840  0.16522482  1
  Br  Br45  1  0.11477094  0.60761962  0.36949938  1
  Br  Br46  1  0.06935869  0.61345686  0.61523172  1
  Br  Br47  1  0.13612379  0.60667797  0.86489986  1
  Br  Br48  1  0.93127701  0.39393665  0.10360113  1
  Br  Br49  1  0.89148024  0.33849961  0.38698125  1
  Br  Br50  1  0.90549679  0.40051240  0.64147009  1
  Br  Br51  1  0.84380667  0.38648207  0.86675900  1
  Br  Br52  1  0.61153324  0.64396649  0.10537511  1
  Br  Br53  1  0.64016366  0.67589862  0.40189823  1
  Br  Br54  1  0.59434372  0.60510356  0.58220967  1
  Br  Br55  1  0.61265466  0.63230956  0.90160861  1
  Br  Br56  1  0.36206414  0.87871429  0.16259343  1
  Br  Br57  1  0.37739462  0.80915027  0.36509279  1
  Br  Br58  1  0.37478889  0.91035104  0.63862595  1
  Br  Br59  1  0.34021245  0.90903889  0.86338608  1
  Br  Br60  1  0.85082939  0.88861913  0.12106271  1
  Br  Br61  1  0.81078470  0.84557636  0.35864605  1
  Br  Br62  1  0.88752294  0.85440758  0.62620801  1
  Br  Br63  1  0.85222745  0.89010814  0.80570744  1
  Br  Br64  1  0.89414541  0.14145047  0.13167369  1
  Br  Br65  1  0.86102336  0.08762805  0.38336260  1
  Br  Br66  1  0.85741884  0.10706858  0.64667116  1
  Br  Br67  1  0.92105952  0.15064418  0.83150915  1
  Br  Br68  1  0.35884713  0.13440398  0.15723516  1
  Br  Br69  1  0.39681863  0.09880448  0.36691958  1
  Br  Br70  1  0.36870099  0.16871776  0.63166499  1
  Br  Br71  1  0.42349183  0.15497413  0.87364781  1
  Br  Br72  1  0.14081090  0.31064340  0.14220518  1
  Br  Br73  1  0.14429163  0.34956115  0.40134199  1
  Br  Br74  1  0.17106671  0.38149290  0.58059684  1
  Br  Br75  1  0.07971602  0.37532532  0.88299813  1
  Br  Br76  1  0.90190891  0.65447833  0.09923696  1
  Br  Br77  1  0.87635445  0.60220935  0.34266076  1
  Br  Br78  1  0.82077486  0.62368132  0.65679619  1
  Br  Br79  1  0.85221455  0.63686608  0.85248720  1
  Br  Br80  1  0.65022441  0.37452283  0.08318591  1
  Br  Br81  1  0.66044418  0.42330233  0.34800409  1
  Br  Br82  1  0.66357078  0.36704534  0.61508621  1
  Br  Br83  1  0.57928796  0.39987194  0.90300886  1
  Br  Br84  1  0.37637396  0.64136595  0.16156375  1
  Br  Br85  1  0.43062392  0.58108106  0.33047744  1
  Br  Br86  1  0.31029093  0.63323541  0.61266164  1
  Br  Br87  1  0.36918963  0.66451591  0.86944786  1
  Br  Br88  1  0.13740637  0.81095903  0.10338441  1
  Br  Br89  1  0.06158595  0.84487888  0.40545056  1
  Br  Br90  1  0.13401907  0.84279257  0.61150974  1
  Br  Br91  1  0.07461039  0.95074285  0.87666012  1
  Br  Br92  1  0.59897565  0.89500199  0.09768580  1
  Br  Br93  1  0.58930054  0.92848053  0.38566660  1
  Br  Br94  1  0.63636873  0.89905061  0.65829174  1
  Br  Br95  1  0.58042952  0.87276220  0.87141649  1
  Rb  Rb96  1  0.01337734  0.97502111  0.03059791  1
  Rb  Rb97  1  0.97103935  0.98288145  0.27069541  1
  Rb  Rb98  1  0.97421221  0.99351983  0.51119543  1
  Rb  Rb99  1  0.01841883  0.99320913  0.71600793  1
  Rb  Rb100  1  0.48905155  0.00707391  0.98410859  1
  Rb  Rb101  1  0.50755994  0.01204299  0.24283568  1
  Rb  Rb102  1  0.49789478  0.01108171  0.52204478  1
  Rb  Rb103  1  0.47676939  0.02233399  0.75140730  1
  Rb  Rb104  1  0.25501490  0.23665648  0.02310532  1
  Rb  Rb105  1  0.23817239  0.21556931  0.27726470  1
  Rb  Rb106  1  0.27286519  0.21355765  0.48984817  1
  Rb  Rb107  1  0.29050997  0.26784048  0.76053644  1
  Rb  Rb108  1  0.98528387  0.53450948  0.97894350  1
  Rb  Rb109  1  0.00925915  0.44391596  0.26293843  1
  Rb  Rb110  1  0.00449385  0.48268281  0.49019026  1
  Rb  Rb111  1  0.99762560  0.51401840  0.75751321  1
  Rb  Rb112  1  0.81655797  0.26815112  0.00227853  1
  Rb  Rb113  1  0.77936209  0.25769269  0.25141143  1
  Rb  Rb114  1  0.75947884  0.23683865  0.50547627  1
  Rb  Rb115  1  0.75658292  0.27848812  0.74426457  1
  Rb  Rb116  1  0.47059391  0.52723208  0.00655934  1
  Rb  Rb117  1  0.52890730  0.46667762  0.21502798  1
  Rb  Rb118  1  0.51543721  0.47555299  0.46371836  1
  Rb  Rb119  1  0.46130989  0.50417810  0.78100122  1
  Rb  Rb120  1  0.21558270  0.77833462  0.96035065  1
  Rb  Rb121  1  0.22478663  0.74090758  0.25763473  1
  Rb  Rb122  1  0.22862625  0.73295909  0.48385633  1
  Rb  Rb123  1  0.26017303  0.76217229  0.74148740  1
  Rb  Rb124  1  0.74926026  0.76547295  0.99488513  1
  Rb  Rb125  1  0.77358913  0.72627351  0.22119756  1
  Rb  Rb126  1  0.70512271  0.78962558  0.52836240  1
  Rb  Rb127  1  0.69615783  0.73865855  0.76325999  1
  Zn  Zn128  1  0.03784100  0.19521415  0.15624074  1
  Zn  Zn129  1  0.01666127  0.24110398  0.39898839  1
  Zn  Zn130  1  0.03294943  0.30581792  0.62651520  1
  Zn  Zn131  1  0.04414087  0.21330268  0.89280850  1
  Zn  Zn132  1  0.58327199  0.23304589  0.11127376  1
  Zn  Zn133  1  0.50705085  0.22900819  0.39008203  1
  Zn  Zn134  1  0.49403071  0.26474419  0.64719255  1
  Zn  Zn135  1  0.53913161  0.24879930  0.91562577  1
  Zn  Zn136  1  0.26862213  0.52896974  0.12504873  1
  Zn  Zn137  1  0.22930951  0.49449853  0.36995510  1
  Zn  Zn138  1  0.27959398  0.47337542  0.63578349  1
  Zn  Zn139  1  0.21099130  0.48213956  0.90717205  1
  Zn  Zn140  1  0.03249024  0.71142293  0.14557346  1
  Zn  Zn141  1  0.93430603  0.75436175  0.39042560  1
  Zn  Zn142  1  0.94952846  0.71306416  0.60636018  1
  Zn  Zn143  1  0.97747836  0.80789694  0.85304069  1
  Zn  Zn144  1  0.79558750  0.47587779  0.10340361  1
  Zn  Zn145  1  0.73953166  0.54609334  0.38886009  1
  Zn  Zn146  1  0.72551509  0.51274640  0.60768766  1
  Zn  Zn147  1  0.74933329  0.51284324  0.85439322  1
  Zn  Zn148  1  0.49933420  0.75674119  0.12412293  1
  Zn  Zn149  1  0.50944511  0.71439812  0.33441737  1
  Zn  Zn150  1  0.46311997  0.70269947  0.61303765  1
  Zn  Zn151  1  0.49655279  0.74662796  0.90468079  1
  Zn  Zn152  1  0.27808356  0.00646484  0.12471852  1
  Zn  Zn153  1  0.30933279  0.95883042  0.37503148  1
  Zn  Zn154  1  0.23205786  0.96812953  0.61467834  1
  Zn  Zn155  1  0.21955156  0.00622328  0.84646844  1
  Zn  Zn156  1  0.72751808  0.98350231  0.14026039  1
  Zn  Zn157  1  0.72823257  0.00137396  0.40118392  1
  Zn  Zn158  1  0.72258069  0.03106323  0.66708864  1
  Zn  Zn159  1  0.80984302  0.03133485  0.86110313  1
