# generated using pymatgen
data_RbZnCl3
_symmetry_space_group_name_H-M   'P 1'
_cell_length_a   14.17237858
_cell_length_b   14.17237858
_cell_length_c   20.04277000
_cell_angle_alpha   90.00000000
_cell_angle_beta   90.00000000
_cell_angle_gamma   90.00000000
_symmetry_Int_Tables_number   1
_chemical_formula_structural   RbZnCl3
_chemical_formula_sum   'Rb32 Zn32 Cl96'
_cell_volume   4025.71691731
_cell_formula_units_Z   32
loop_
 _symmetry_equiv_pos_site_id
 _symmetry_equiv_pos_as_xyz
  1  'x, y, z'
loop_
 _atom_site_type_symbol
 _atom_site_label
 _atom_site_symmetry_multiplicity
 _atom_site_fract_x
 _atom_site_fract_y
 _atom_site_fract_z
 _atom_site_occupancy
  Cl  Cl0  1  0.95884390  0.21516772  0.00736776  1
  Cl  Cl1  1  0.01488404  0.23223894  0.24048783  1
  Cl  Cl2  1  0.97226692  0.23790280  0.51099843  1
  Cl  Cl3  1  -0.00435125  0.27847829  0.73203784  1
  Cl  Cl4  1  0.47950289  0.26504105  0.97666746  1
  Cl  Cl5  1  0.50729828  0.25615395  0.24902749  1
  Cl  Cl6  1  0.45553682  0.24205875  0.51044098  1
  Cl  Cl7  1  0.52399793  0.27235508  0.76602296  1
  Cl  Cl8  1  0.24766395  0.48891418  0.01045559  1
  Cl  Cl9  1  0.24630921  0.48725573  0.22774962  1
  Cl  Cl10  1  0.31664393  0.46267004  0.51318676  1
  Cl  Cl11  1  0.20291064  0.54012791  0.72689314  1
  Cl  Cl12  1  0.00209493  0.73724334  0.98704959  1
  Cl  Cl13  1  0.04892636  0.76300008  0.26153155  1
  Cl  Cl14  1  0.95422882  0.70281630  0.48647304  1
  Cl  Cl15  1  0.01267311  0.74407966  0.76961508  1
  Cl  Cl16  1  0.76874475  0.52073832  0.02215176  1
  Cl  Cl17  1  0.71470359  0.48043130  0.25060775  1
  Cl  Cl18  1  0.76463077  0.50571998  0.47567156  1
  Cl  Cl19  1  0.74806310  0.50453475  0.75300669  1
  Cl  Cl20  1  0.46117977  0.76683455  0.98927676  1
  Cl  Cl21  1  0.49561192  0.75975644  0.26616054  1
  Cl  Cl22  1  0.50606777  0.75029800  0.49064801  1
  Cl  Cl23  1  0.55277599  0.75510522  0.76109903  1
  Cl  Cl24  1  0.28163376  0.99626206  0.99521000  1
  Cl  Cl25  1  0.23312198  0.96921175  0.25123202  1
  Cl  Cl26  1  0.26919203  0.00275803  0.52503343  1
  Cl  Cl27  1  0.22533330  0.99239998  0.74070552  1
  Cl  Cl28  1  0.79172901  0.03482907  0.99213633  1
  Cl  Cl29  1  0.73811942  0.00991196  0.26674044  1
  Cl  Cl30  1  0.76428659  0.00835626  0.49039455  1
  Cl  Cl31  1  0.74301660  0.98424730  0.75795882  1
  Cl  Cl32  1  0.11748693  0.10878861  0.11560616  1
  Cl  Cl33  1  0.13192640  0.08102998  0.38613542  1
  Cl  Cl34  1  0.11779335  0.11818738  0.62361733  1
  Cl  Cl35  1  0.12855990  0.09526692  0.87700271  1
  Cl  Cl36  1  0.61514508  0.15960539  0.10854697  1
  Cl  Cl37  1  0.62137523  0.14569879  0.38881343  1
  Cl  Cl38  1  0.63277028  0.10766946  0.62242814  1
  Cl  Cl39  1  0.64298195  0.13644837  0.88159346  1
  Cl  Cl40  1  0.36439352  0.33169610  0.11518531  1
  Cl  Cl41  1  0.34155362  0.37659708  0.35693975  1
  Cl  Cl42  1  0.35886256  0.38904699  0.66951621  1
  Cl  Cl43  1  0.33763886  0.39169254  0.85565667  1
  Cl  Cl44  1  0.10335019  0.62632262  0.12096649  1
  Cl  Cl45  1  0.13631281  0.57235905  0.38092707  1
  Cl  Cl46  1  0.15282530  0.60752740  0.56636519  1
  Cl  Cl47  1  0.12989490  0.59085471  0.88374253  1
  Cl  Cl48  1  0.85982995  0.35632839  0.13795893  1
  Cl  Cl49  1  0.86176058  0.36985688  0.35807730  1
  Cl  Cl50  1  0.84917739  0.38869124  0.61395429  1
  Cl  Cl51  1  0.85917829  0.37167418  0.88146886  1
  Cl  Cl52  1  0.62633854  0.67153244  0.12302481  1
  Cl  Cl53  1  0.64116103  0.63715322  0.36691268  1
  Cl  Cl54  1  0.66939233  0.62708213  0.61531522  1
  Cl  Cl55  1  0.62242132  0.64823710  0.89984301  1
  Cl  Cl56  1  0.40886360  0.86725408  0.13539471  1
  Cl  Cl57  1  0.36580217  0.89403502  0.38760710  1
  Cl  Cl58  1  0.38371213  0.88550372  0.64481719  1
  Cl  Cl59  1  0.39040969  0.88711276  0.84921534  1
  Cl  Cl60  1  0.90708680  0.85828434  0.12844754  1
  Cl  Cl61  1  0.87709248  0.87079985  0.36945000  1
  Cl  Cl62  1  0.85685649  0.88119532  0.62100208  1
  Cl  Cl63  1  0.88257963  0.88534487  0.87806218  1
  Cl  Cl64  1  0.86477551  0.11316258  0.14783996  1
  Cl  Cl65  1  0.89150026  0.12340384  0.37259137  1
  Cl  Cl66  1  0.87003723  0.12414498  0.64137790  1
  Cl  Cl67  1  0.89011463  0.12829784  0.84692254  1
  Cl  Cl68  1  0.36524523  0.09757262  0.13703182  1
  Cl  Cl69  1  0.38026306  0.14101667  0.36938954  1
  Cl  Cl70  1  0.38460975  0.14624524  0.65810532  1
  Cl  Cl71  1  0.36976423  0.12443858  0.85423205  1
  Cl  Cl72  1  0.10953340  0.35881478  0.10885296  1
  Cl  Cl73  1  0.10935577  0.33087805  0.37800657  1
  Cl  Cl74  1  0.12392540  0.36695229  0.60100588  1
  Cl  Cl75  1  0.10096845  0.33954575  0.88438169  1
  Cl  Cl76  1  0.86435883  0.62187123  0.16352407  1
  Cl  Cl77  1  0.89621083  0.61861017  0.33557883  1
  Cl  Cl78  1  0.92130079  0.62357589  0.64695419  1
  Cl  Cl79  1  0.86255763  0.61846041  0.88110987  1
  Cl  Cl80  1  0.59954236  0.41753737  0.11006529  1
  Cl  Cl81  1  0.58551690  0.37938454  0.38863681  1
  Cl  Cl82  1  0.60133578  0.36630066  0.62231841  1
  Cl  Cl83  1  0.62649840  0.41100057  0.88727951  1
  Cl  Cl84  1  0.38496528  0.61144000  0.12318024  1
  Cl  Cl85  1  0.37598831  0.62715106  0.37701670  1
  Cl  Cl86  1  0.41513755  0.63977033  0.63406153  1
  Cl  Cl87  1  0.37544944  0.63785487  0.85322971  1
  Cl  Cl88  1  0.15875924  0.86390324  0.11119886  1
  Cl  Cl89  1  0.12732619  0.83192704  0.41131341  1
  Cl  Cl90  1  0.10328528  0.84269470  0.61614968  1
  Cl  Cl91  1  0.15828661  0.85389419  0.88211838  1
  Cl  Cl92  1  0.65312794  0.91405713  0.11770086  1
  Cl  Cl93  1  0.61426912  0.89025356  0.38248344  1
  Cl  Cl94  1  0.62031676  0.86426678  0.61534691  1
  Cl  Cl95  1  0.63435301  0.89271706  0.90380956  1
  Rb  Rb96  1  0.02072856  0.97820909  0.00039149  1
  Rb  Rb97  1  0.99630738  0.99411404  0.25186280  1
  Rb  Rb98  1  0.99527817  -0.00524969  0.50455549  1
  Rb  Rb99  1  -0.00423047  0.98461603  0.74201515  1
  Rb  Rb100  1  0.50257595  0.01305017  0.00699213  1
  Rb  Rb101  1  0.49488999  0.00351015  0.25845734  1
  Rb  Rb102  1  0.50187367  0.00665103  0.50361740  1
  Rb  Rb103  1  0.51944672  0.01238260  0.75008147  1
  Rb  Rb104  1  0.24297637  0.23602397  0.99016170  1
  Rb  Rb105  1  0.24676993  0.22674345  0.24778674  1
  Rb  Rb106  1  0.22819820  0.22625951  0.49146744  1
  Rb  Rb107  1  0.21887920  0.24149294  0.75854925  1
  Rb  Rb108  1  -0.00143024  0.49315708  0.99971429  1
  Rb  Rb109  1  0.02008607  0.47392286  0.24437345  1
  Rb  Rb110  1  0.99072257  0.46909793  0.48606481  1
  Rb  Rb111  1  0.98797036  0.49544898  0.77370563  1
  Rb  Rb112  1  0.73198025  0.28298055  -0.00010288  1
  Rb  Rb113  1  0.73796588  0.24132276  0.25854523  1
  Rb  Rb114  1  0.73652817  0.25758182  0.50368564  1
  Rb  Rb115  1  0.75192390  0.26059037  0.74595794  1
  Rb  Rb116  1  0.47589997  0.50933531  0.98406814  1
  Rb  Rb117  1  0.48939335  0.51004405  0.25790101  1
  Rb  Rb118  1  0.53585535  0.52433664  0.50592146  1
  Rb  Rb119  1  0.51664206  0.51037382  0.75453240  1
  Rb  Rb120  1  0.23933217  0.72196250  0.00011141  1
  Rb  Rb121  1  0.26930622  0.73246069  0.24148942  1
  Rb  Rb122  1  0.28815884  0.76895813  0.51517721  1
  Rb  Rb123  1  0.24778241  0.76272577  0.74425369  1
  Rb  Rb124  1  0.76826645  0.76028946  0.00782749  1
  Rb  Rb125  1  0.73485728  0.77882644  0.24870996  1
  Rb  Rb126  1  0.73936847  0.76864489  0.49296004  1
  Rb  Rb127  1  0.77952464  0.75301586  0.75108324  1
  Zn  Zn128  1  0.00204685  0.23682339  0.12108931  1
  Zn  Zn129  1  0.97747437  0.25251554  0.35831792  1
  Zn  Zn130  1  -0.00154413  0.23771399  0.62312323  1
  Zn  Zn131  1  0.97052648  0.25199316  0.89177910  1
  Zn  Zn132  1  0.51692300  0.28676531  0.13960361  1
  Zn  Zn133  1  0.47424562  0.26677100  0.38743302  1
  Zn  Zn134  1  0.46499756  0.28489918  0.62105847  1
  Zn  Zn135  1  0.49962907  0.22571009  0.87030164  1
  Zn  Zn136  1  0.26609545  0.47265734  0.11930269  1
  Zn  Zn137  1  0.27364456  0.50657901  0.40540197  1
  Zn  Zn138  1  0.23620472  0.47916044  0.61876723  1
  Zn  Zn139  1  0.25947237  0.52495546  0.83991429  1
  Zn  Zn140  1  0.99336955  0.73050304  0.15226659  1
  Zn  Zn141  1  0.98695846  0.75489760  0.37275570  1
  Zn  Zn142  1  0.02906389  0.71149326  0.58785557  1
  Zn  Zn143  1  0.01072441  0.77112395  0.87858080  1
  Zn  Zn144  1  0.76532008  0.49137889  0.13516351  1
  Zn  Zn145  1  0.76654161  0.52465433  0.36271657  1
  Zn  Zn146  1  0.78130909  0.52431876  0.63762861  1
  Zn  Zn147  1  0.73769827  0.52211168  0.87871628  1
  Zn  Zn148  1  0.48804515  0.73849179  0.10500444  1
  Zn  Zn149  1  0.50821803  0.75151223  0.37773155  1
  Zn  Zn150  1  0.50034037  0.77145977  0.64991234  1
  Zn  Zn151  1  0.51493786  0.77715320  0.87659511  1
  Zn  Zn152  1  0.24945632  0.99268889  0.11918895  1
  Zn  Zn153  1  0.22261594  0.95566483  0.36544004  1
  Zn  Zn154  1  0.26705788  0.02997933  0.63465719  1
  Zn  Zn155  1  0.25685795  0.99434454  0.87903011  1
  Zn  Zn156  1  0.74256649  0.03839449  0.10213796  1
  Zn  Zn157  1  0.72358914  0.01841419  0.37923068  1
  Zn  Zn158  1  0.75429045  0.00408662  0.62708952  1
  Zn  Zn159  1  0.75696394  0.00747278  0.87380080  1
