# generated using pymatgen
data_LiSnF3
_symmetry_space_group_name_H-M   'P 1'
_cell_length_a   10.96723608
_cell_length_b   10.96723608
_cell_length_c   15.51001400
_cell_angle_alpha   90.00000000
_cell_angle_beta   90.00000000
_cell_angle_gamma   90.00000000
_symmetry_Int_Tables_number   1
_chemical_formula_structural   LiSnF3
_chemical_formula_sum   'Li32 Sn32 F96'
_cell_volume   1865.54862727
_cell_formula_units_Z   32
loop_
 _symmetry_equiv_pos_site_id
 _symmetry_equiv_pos_as_xyz
  1  'x, y, z'
loop_
 _atom_site_type_symbol
 _atom_site_label
 _atom_site_symmetry_multiplicity
 _atom_site_fract_x
 _atom_site_fract_y
 _atom_site_fract_z
 _atom_site_occupancy
  F  F0  1  0.13167965  0.12516422  0.01430854  1
  F  F1  1  0.10714281  0.14858641  0.24972400  1
  F  F2  1  0.13090877  0.12325601  0.51979800  1
  F  F3  1  0.12762589  0.12506615  0.73989978  1
  F  F4  1  0.63219149  0.12335847  0.01218465  1
  F  F5  1  0.61233267  0.14256901  0.25358772  1
  F  F6  1  0.63189270  0.12435376  0.50903456  1
  F  F7  1  0.63055639  0.12142004  0.76060879  1
  F  F8  1  0.37422932  0.38389333  0.00511910  1
  F  F9  1  0.37857399  0.37495243  0.26750765  1
  F  F10  1  0.37597319  0.37862165  0.50815149  1
  F  F11  1  0.38516604  0.36790577  0.75778780  1
  F  F12  1  0.13213285  0.62440637  0.01066501  1
  F  F13  1  0.10725706  0.64560212  0.25335684  1
  F  F14  1  0.13264125  0.62233414  0.50839805  1
  F  F15  1  0.13228234  0.62432966  0.76211878  1
  F  F16  1  0.87373384  0.38375091  0.00711817  1
  F  F17  1  0.87885659  0.37640650  0.26221419  1
  F  F18  1  0.87652966  0.37996269  0.50979017  1
  F  F19  1  0.88612703  0.36623291  0.75614554  1
  F  F20  1  0.63360949  0.62395726  0.01410028  1
  F  F21  1  0.61006309  0.64354399  0.25104706  1
  F  F22  1  0.63102312  0.62456548  0.51143392  1
  F  F23  1  0.63208876  0.62213400  0.75719273  1
  F  F24  1  0.37150636  0.88456031  0.01712607  1
  F  F25  1  0.37945622  0.87470713  0.24193444  1
  F  F26  1  0.37848639  0.87760636  0.50928228  1
  F  F27  1  0.39345214  0.86140830  0.75267979  1
  F  F28  1  0.86999769  0.88596599  0.00382635  1
  F  F29  1  0.88067298  0.87508099  0.26850679  1
  F  F30  1  0.87742633  0.87830657  0.50674384  1
  F  F31  1  0.88798071  0.86509435  0.75917039  1
  F  F32  1  0.89120698  0.13754168  0.00266697  1
  F  F33  1  0.87144511  0.12474777  0.26588235  1
  F  F34  1  0.88436820  0.13738474  0.50706635  1
  F  F35  1  0.87915453  0.12428384  0.75925993  1
  F  F36  1  0.39387203  0.14006924  0.99845676  1
  F  F37  1  0.37180919  0.12561993  0.26717412  1
  F  F38  1  0.38681134  0.13962019  0.49921195  1
  F  F39  1  0.37933725  0.12540566  0.76340153  1
  F  F40  1  0.13169220  0.37648244  0.01499782  1
  F  F41  1  0.14084812  0.39655085  0.25010247  1
  F  F42  1  0.12688754  0.37989996  0.51579499  1
  F  F43  1  0.13929830  0.38568422  0.75185087  1
  F  F44  1  0.89150178  0.63745653  0.99936707  1
  F  F45  1  0.86811624  0.62450706  0.26828182  1
  F  F46  1  0.88424104  0.63788833  0.50047750  1
  F  F47  1  0.87944765  0.62317433  0.76403005  1
  F  F48  1  0.63235639  0.37679959  0.00949187  1
  F  F49  1  0.63839546  0.39267522  0.25465706  1
  F  F50  1  0.62838173  0.38272195  0.50866236  1
  F  F51  1  0.63649629  0.38227041  0.75640878  1
  F  F52  1  0.39068131  0.63703318  0.00480400  1
  F  F53  1  0.36922356  0.62428213  0.26207900  1
  F  F54  1  0.38450723  0.63770789  0.50384721  1
  F  F55  1  0.37998264  0.62494067  0.76301398  1
  F  F56  1  0.12900444  0.87710759  0.99228068  1
  F  F57  1  0.13868531  0.89518726  0.26225662  1
  F  F58  1  0.12951150  0.88118002  0.49504466  1
  F  F59  1  0.13992182  0.88444179  0.76450604  1
  F  F60  1  0.62806323  0.87495995  0.01678082  1
  F  F61  1  0.64191609  0.89541962  0.24989292  1
  F  F62  1  0.62860031  0.88213474  0.51365687  1
  F  F63  1  0.64002527  0.88346647  0.75267892  1
  F  F64  1  0.99082552  0.01207928  0.12780319  1
  F  F65  1  0.01964545  0.02338149  0.37976084  1
  F  F66  1  0.01345465  0.98519838  0.62859698  1
  F  F67  1  0.01873908  0.01364106  0.87689221  1
  F  F68  1  0.48753653  0.02245335  0.12857808  1
  F  F69  1  0.51628371  0.01062967  0.37604795  1
  F  F70  1  0.51191506  0.00970175  0.62781224  1
  F  F71  1  0.51901581  0.98983407  0.87832202  1
  F  F72  1  0.26835934  0.26402210  0.12849861  1
  F  F73  1  0.23231319  0.26752833  0.37826509  1
  F  F74  1  0.27161260  0.24156534  0.62790910  1
  F  F75  1  0.26042527  0.25895075  0.87663131  1
  F  F76  1  0.99033241  0.52065110  0.12751226  1
  F  F77  1  0.01326596  0.51221728  0.37679241  1
  F  F78  1  0.01173576  0.50907756  0.62855242  1
  F  F79  1  0.02053847  0.49333258  0.87775547  1
  F  F80  1  0.75822583  0.26385373  0.12787383  1
  F  F81  1  0.74661469  0.26713327  0.37757185  1
  F  F82  1  0.76151318  0.25041052  0.62741790  1
  F  F83  1  0.76745325  0.25203204  0.87703066  1
  F  F84  1  0.49420685  0.51105290  0.12751250  1
  F  F85  1  0.51132188  0.52053377  0.37690993  1
  F  F86  1  0.51220811  0.50100095  0.62774867  1
  F  F87  1  0.52032675  0.50273221  0.87766425  1
  F  F88  1  0.23966710  0.76498956  0.12812869  1
  F  F89  1  0.25531887  0.76654771  0.37638352  1
  F  F90  1  0.26259362  0.74620992  0.62734604  1
  F  F91  1  0.27329187  0.76478208  0.87942761  1
  F  F92  1  0.76609008  0.76415756  0.12867453  1
  F  F93  1  0.73446217  0.76797456  0.37770748  1
  F  F94  1  0.77015537  0.74737823  0.62721050  1
  F  F95  1  0.76143030  0.75348100  0.87731418  1
  Li  Li96  1  0.00079629  0.99496150  0.99911513  1
  Li  Li97  1  0.00104739  0.99540655  0.24815413  1
  Li  Li98  1  0.99571199  0.00413340  0.50154701  1
  Li  Li99  1  0.99597254  0.99740942  0.75085468  1
  Li  Li100  1  0.50114713  0.99368484  0.99858190  1
  Li  Li101  1  0.50159683  0.99517148  0.24950370  1
  Li  Li102  1  0.49402417  0.00143538  0.49680562  1
  Li  Li103  1  0.49245143  -0.00000168  0.74812720  1
  Li  Li104  1  0.25222235  0.24332705  0.99767105  1
  Li  Li105  1  0.25026918  0.24332977  0.24829550  1
  Li  Li106  1  0.24202928  0.25019136  0.49876105  1
  Li  Li107  1  0.24413042  0.24944943  0.74898048  1
  Li  Li108  1  0.00322921  0.49358749  0.99759512  1
  Li  Li109  1  0.00049792  0.49636871  0.24672850  1
  Li  Li110  1  0.99535817  0.50255497  0.49740961  1
  Li  Li111  1  0.99444296  0.49863346  0.74843422  1
  Li  Li112  1  0.75385280  0.24377508  0.99735399  1
  Li  Li113  1  0.74886313  0.24397942  0.24730341  1
  Li  Li114  1  0.74422756  0.25111335  0.49749118  1
  Li  Li115  1  0.74348045  0.24933360  0.74741571  1
  Li  Li116  1  0.50296036  0.49495043  0.99694216  1
  Li  Li117  1  0.50014784  0.49374514  0.24761201  1
  Li  Li118  1  0.49383272  0.50353708  0.49711190  1
  Li  Li119  1  0.49384672  0.49794838  0.74743974  1
  Li  Li120  1  0.25490915  0.74607657  0.00133494  1
  Li  Li121  1  0.24652788  0.74575230  0.25032695  1
  Li  Li122  1  0.24418135  0.74970438  0.49895914  1
  Li  Li123  1  0.24562883  0.75161774  0.74771180  1
  Li  Li124  1  0.75314361  0.74529922  0.99813350  1
  Li  Li125  1  0.74870674  0.74497364  0.24796239  1
  Li  Li126  1  0.74259553  0.75129799  0.49798257  1
  Li  Li127  1  0.74684424  0.74936595  0.74636403  1
  Sn  Sn128  1  0.00916575  0.21443983  0.10723074  1
  Sn  Sn129  1  0.99180267  0.22595695  0.35574565  1
  Sn  Sn130  1  0.96326413  0.26086718  0.60792256  1
  Sn  Sn131  1  0.96798829  0.24115175  0.85781630  1
  Sn  Sn132  1  0.50840871  0.22295341  0.10348799  1
  Sn  Sn133  1  0.49485372  0.21483808  0.35830128  1
  Sn  Sn134  1  0.47065765  0.25709172  0.60257505  1
  Sn  Sn135  1  0.46292643  0.24486865  0.85875929  1
  Sn  Sn136  1  0.25909108  0.46576819  0.10752790  1
  Sn  Sn137  1  0.24775694  0.46775253  0.35890274  1
  Sn  Sn138  1  0.21344712  0.50757170  0.61024508  1
  Sn  Sn139  1  0.22025773  0.49472740  0.85635283  1
  Sn  Sn140  1  0.01051582  0.71916739  0.10511377  1
  Sn  Sn141  1  0.99144642  0.71659093  0.35979895  1
  Sn  Sn142  1  0.96809882  0.75893481  0.60433033  1
  Sn  Sn143  1  0.96472072  0.74194602  0.86075085  1
  Sn  Sn144  1  0.75832717  0.46471072  0.10755007  1
  Sn  Sn145  1  0.74672457  0.46850308  0.35954580  1
  Sn  Sn146  1  0.71290833  0.50570190  0.60900555  1
  Sn  Sn147  1  0.72041375  0.49554975  0.85616484  1
  Sn  Sn148  1  0.51060252  0.71433151  0.10785238  1
  Sn  Sn149  1  0.48990458  0.71976119  0.35626102  1
  Sn  Sn150  1  0.46343163  0.75892230  0.60653738  1
  Sn  Sn151  1  0.47568568  0.74366364  0.85523577  1
  Sn  Sn152  1  0.27391294  0.96445411  0.13140802  1
  Sn  Sn153  1  0.22899206  0.96789827  0.38150043  1
  Sn  Sn154  1  0.21302181  0.02092568  0.63009281  1
  Sn  Sn155  1  0.21842938  0.97701269  0.88076902  1
  Sn  Sn156  1  0.75818613  0.96595948  0.10829751  1
  Sn  Sn157  1  0.74569874  0.96819403  0.35978119  1
  Sn  Sn158  1  0.71349568  0.00646259  0.60954007  1
  Sn  Sn159  1  0.71921124  0.99705551  0.85585004  1
