# generated using pymatgen
data_TlSnF3
_symmetry_space_group_name_H-M   'P 1'
_cell_length_a   13.28518584
_cell_length_b   13.28518584
_cell_length_c   18.78808900
_cell_angle_alpha   90.00000000
_cell_angle_beta   90.00000000
_cell_angle_gamma   90.00000000
_symmetry_Int_Tables_number   1
_chemical_formula_structural   TlSnF3
_chemical_formula_sum   'Tl32 Sn32 F96'
_cell_volume   3316.02561718
_cell_formula_units_Z   32
loop_
 _symmetry_equiv_pos_site_id
 _symmetry_equiv_pos_as_xyz
  1  'x, y, z'
loop_
 _atom_site_type_symbol
 _atom_site_label
 _atom_site_symmetry_multiplicity
 _atom_site_fract_x
 _atom_site_fract_y
 _atom_site_fract_z
 _atom_site_occupancy
  F  F0  1  0.13499189  0.16461391  0.02417896  1
  F  F1  1  0.09884494  0.10309766  0.28772695  1
  F  F2  1  0.08347029  0.08738563  0.55499479  1
  F  F3  1  0.16158257  0.03744227  0.73358635  1
  F  F4  1  0.66677633  0.14528238  0.06021493  1
  F  F5  1  0.58350490  0.08869155  0.31720532  1
  F  F6  1  0.64292627  0.17264887  0.50380506  1
  F  F7  1  0.54620073  0.15939353  0.74439300  1
  F  F8  1  0.43140846  0.36600671  0.00275408  1
  F  F9  1  0.35916526  0.35112985  0.25759251  1
  F  F10  1  0.35073295  0.38358797  0.45693922  1
  F  F11  1  0.33767183  0.34334531  0.80807020  1
  F  F12  1  0.15490928  0.66111597  0.03397605  1
  F  F13  1  0.13695874  0.56233431  0.23736367  1
  F  F14  1  0.21845721  0.59166461  0.48477019  1
  F  F15  1  0.07375551  0.62245796  0.74401963  1
  F  F16  1  0.91392237  0.38148909  0.98240392  1
  F  F17  1  0.80376201  0.40142426  0.24193478  1
  F  F18  1  0.92188662  0.39284769  0.50090316  1
  F  F19  1  0.86944926  0.31983076  0.75199618  1
  F  F20  1  0.62003102  0.71177116  0.99507365  1
  F  F21  1  0.62447470  0.57996497  0.21336633  1
  F  F22  1  0.64476069  0.59879653  0.54625797  1
  F  F23  1  0.60630759  0.59279558  0.77348230  1
  F  F24  1  0.45398586  0.88009910  0.99205652  1
  F  F25  1  0.28260459  0.90155390  0.24632988  1
  F  F26  1  0.38036694  0.92274725  0.53881921  1
  F  F27  1  0.33521438  0.84036457  0.80576263  1
  F  F28  1  0.92154240  0.89253370  0.05630049  1
  F  F29  1  0.82542141  0.87446805  0.28716414  1
  F  F30  1  0.86249354  0.84630780  0.46038087  1
  F  F31  1  0.83456924  0.84728321  0.75093365  1
  F  F32  1  0.89477158  0.10829023  0.04965536  1
  F  F33  1  0.89920005  0.21084021  0.25388897  1
  F  F34  1  0.86768973  0.06236021  0.51350687  1
  F  F35  1  0.96339860  0.13185346  0.73196077  1
  F  F36  1  0.35162786  0.14310302  0.02483960  1
  F  F37  1  0.36009914  0.13527714  0.30339565  1
  F  F38  1  0.40650585  0.17915099  0.49590191  1
  F  F39  1  0.34372717  0.13275022  0.80294617  1
  F  F40  1  0.12060711  0.42796144  0.01727635  1
  F  F41  1  0.07645639  0.35693983  0.25260506  1
  F  F42  1  0.13854932  0.39487765  0.52845516  1
  F  F43  1  0.14029358  0.40695558  0.75246293  1
  F  F44  1  0.79382135  0.59131218  0.95233429  1
  F  F45  1  0.87796234  0.67846703  0.23542234  1
  F  F46  1  0.84507073  0.62505149  0.47312189  1
  F  F47  1  0.83041959  0.63495665  0.76709009  1
  F  F48  1  0.64569278  0.35312857  0.02661484  1
  F  F49  1  0.58422618  0.36608912  0.24203392  1
  F  F50  1  0.69342548  0.38199217  0.49795694  1
  F  F51  1  0.66971439  0.36107232  0.70480235  1
  F  F52  1  0.37788742  0.57643644  0.98929407  1
  F  F53  1  0.37005546  0.69652371  0.25291382  1
  F  F54  1  0.44438164  0.65168682  0.50605170  1
  F  F55  1  0.38559263  0.59183267  0.80073435  1
  F  F56  1  0.17258948  0.88428926  0.02562790  1
  F  F57  1  0.05762416  0.89664892  0.29434315  1
  F  F58  1  0.10272259  0.77869102  0.49419784  1
  F  F59  1  0.12310920  0.83453545  0.77173156  1
  F  F60  1  0.67316430  0.94152869  0.98709264  1
  F  F61  1  0.59187551  0.87495895  0.28113840  1
  F  F62  1  0.60317991  0.89318422  0.55115536  1
  F  F63  1  0.63154956  0.95082832  0.72949898  1
  F  F64  1  0.06925725  0.01838398  0.12367645  1
  F  F65  1  0.91909542  0.04924735  0.35934079  1
  F  F66  1  0.97180934  0.91316820  0.58979816  1
  F  F67  1  0.01172596  0.00134770  0.84520685  1
  F  F68  1  0.54658476  0.97170007  0.10617369  1
  F  F69  1  0.42855426  0.93655040  0.36293648  1
  F  F70  1  0.50022358  0.06622636  0.60989359  1
  F  F71  1  0.53529547  0.00222496  0.85294784  1
  F  F72  1  0.26519590  0.30555914  0.10190387  1
  F  F73  1  0.21635870  0.27753880  0.35760566  1
  F  F74  1  0.32082116  0.31736330  0.59936705  1
  F  F75  1  0.15712691  0.21855636  0.84706604  1
  F  F76  1  0.97937165  0.48037225  0.14531959  1
  F  F77  1  0.06228008  0.46879481  0.39405024  1
  F  F78  1  0.99964582  0.47379526  0.64271618  1
  F  F79  1  0.03264730  0.52631421  0.89253546  1
  F  F80  1  0.81093552  0.29487878  0.10957629  1
  F  F81  1  0.72675887  0.27869735  0.35246758  1
  F  F82  1  0.80174399  0.26276535  0.59942327  1
  F  F83  1  0.70202617  0.25966724  0.83916660  1
  F  F84  1  0.46573365  0.47117848  0.13749127  1
  F  F85  1  0.55824002  0.53131216  0.40743355  1
  F  F86  1  0.45343825  0.56067683  0.65582825  1
  F  F87  1  0.53390448  0.46521508  0.88873983  1
  F  F88  1  0.31965691  0.76825328  0.10406042  1
  F  F89  1  0.20289983  0.74392624  0.34398562  1
  F  F90  1  0.26385877  0.73315676  0.59467803  1
  F  F91  1  0.19596223  0.68940236  0.86353492  1
  F  F92  1  0.79980915  0.70648221  0.08250616  1
  F  F93  1  0.71430121  0.70040973  0.33867877  1
  F  F94  1  0.79962778  0.75463935  0.59324843  1
  F  F95  1  0.68489469  0.77933665  0.84238174  1
  Sn  Sn96  1  0.01834929  0.00967967  0.01750025  1
  Sn  Sn97  1  0.96922197  0.01763360  0.25396914  1
  Sn  Sn98  1  0.99855110  0.97941068  0.49032294  1
  Sn  Sn99  1  0.01187443  0.97608775  0.73397934  1
  Sn  Sn100  1  0.53325455  0.01954282  0.99818502  1
  Sn  Sn101  1  0.48010978  0.99392989  0.26482399  1
  Sn  Sn102  1  0.50790619  0.00809132  0.50412409  1
  Sn  Sn103  1  0.48465906  0.01319997  0.74444340  1
  Sn  Sn104  1  0.25418754  0.26233958  0.99447945  1
  Sn  Sn105  1  0.25157370  0.23320878  0.25301363  1
  Sn  Sn106  1  0.26556338  0.26639541  0.49878534  1
  Sn  Sn107  1  0.24235305  0.24270862  0.75522701  1
  Sn  Sn108  1  0.99000652  0.51626256  0.00179995  1
  Sn  Sn109  1  0.99484166  0.49493300  0.25777063  1
  Sn  Sn110  1  0.03123039  0.50819210  0.50135239  1
  Sn  Sn111  1  0.99802187  0.48062125  0.75680933  1
  Sn  Sn112  1  0.76690118  0.24822542  0.00726002  1
  Sn  Sn113  1  0.74387069  0.25535598  0.23994440  1
  Sn  Sn114  1  0.78207929  0.24719225  0.48428007  1
  Sn  Sn115  1  0.74250391  0.22621882  0.73222765  1
  Sn  Sn116  1  0.52083834  0.49814482  0.00156157  1
  Sn  Sn117  1  0.49551875  0.49732803  0.24637855  1
  Sn  Sn118  1  0.51874686  0.51018777  0.51513131  1
  Sn  Sn119  1  0.48902465  0.48743592  0.75680699  1
  Sn  Sn120  1  0.26760362  0.75903995  0.99715395  1
  Sn  Sn121  1  0.22547090  0.75214328  0.23207365  1
  Sn  Sn122  1  0.25848341  0.74573125  0.48257002  1
  Sn  Sn123  1  0.24338215  0.72593816  0.75974960  1
  Sn  Sn124  1  0.77097502  0.74536554  0.97499833  1
  Sn  Sn125  1  0.73783382  0.75940431  0.23693379  1
  Sn  Sn126  1  0.73815314  0.73979526  0.48967254  1
  Sn  Sn127  1  0.71827389  0.73715843  0.73408422  1
  Tl  Tl128  1  0.01143755  0.26687213  0.12760041  1
  Tl  Tl129  1  0.01148872  0.24993556  0.36802729  1
  Tl  Tl130  1  0.00243057  0.25226034  0.62137944  1
  Tl  Tl131  1  0.96733967  0.20213599  0.86243817  1
  Tl  Tl132  1  0.49058625  0.26535079  0.11556700  1
  Tl  Tl133  1  0.51379646  0.25326500  0.37636700  1
  Tl  Tl134  1  0.52331813  0.26153942  0.60400557  1
  Tl  Tl135  1  0.50076270  0.24593223  0.87216182  1
  Tl  Tl136  1  0.25054304  0.50539186  0.11430117  1
  Tl  Tl137  1  0.25699327  0.49203590  0.35799902  1
  Tl  Tl138  1  0.25378267  0.50857328  0.62368592  1
  Tl  Tl139  1  0.24681844  0.49371703  0.89026240  1
  Tl  Tl140  1  0.99241471  0.73461200  0.12197423  1
  Tl  Tl141  1  0.98246089  0.74609032  0.36644590  1
  Tl  Tl142  1  0.99687515  0.72564597  0.61047054  1
  Tl  Tl143  1  0.98962779  0.72675315  0.84804379  1
  Tl  Tl144  1  0.75955004  0.50384245  0.12120297  1
  Tl  Tl145  1  0.75026274  0.49796858  0.37316078  1
  Tl  Tl146  1  0.78405547  0.47004083  0.60931606  1
  Tl  Tl147  1  0.74499647  0.47090780  0.84668921  1
  Tl  Tl148  1  0.51767236  0.77445640  0.11194002  1
  Tl  Tl149  1  0.49482282  0.73846812  0.36335056  1
  Tl  Tl150  1  0.46433294  0.76098434  0.62223157  1
  Tl  Tl151  1  0.49080432  0.74979915  0.88341358  1
  Tl  Tl152  1  0.26400151  0.00967299  0.11825350  1
  Tl  Tl153  1  0.22449023  0.97320257  0.36540341  1
  Tl  Tl154  1  0.26049959  0.04859686  0.61201072  1
  Tl  Tl155  1  0.22684283  0.99237192  0.86356294  1
  Tl  Tl156  1  0.75871104  0.98970349  0.11528759  1
  Tl  Tl157  1  0.73977160  0.98267466  0.38775377  1
  Tl  Tl158  1  0.76678284  0.96531597  0.62192429  1
  Tl  Tl159  1  0.73696814  0.97224762  0.84692824  1
