# generated using pymatgen
data_SrInBr3
_symmetry_space_group_name_H-M   'P 1'
_cell_length_a   16.45965830
_cell_length_b   16.45965830
_cell_length_c   23.27747100
_cell_angle_alpha   90.00000000
_cell_angle_beta   90.00000000
_cell_angle_gamma   90.00000000
_symmetry_Int_Tables_number   1
_chemical_formula_structural   SrInBr3
_chemical_formula_sum   'Sr32 In32 Br96'
_cell_volume   6306.34062198
_cell_formula_units_Z   32
loop_
 _symmetry_equiv_pos_site_id
 _symmetry_equiv_pos_as_xyz
  1  'x, y, z'
loop_
 _atom_site_type_symbol
 _atom_site_label
 _atom_site_symmetry_multiplicity
 _atom_site_fract_x
 _atom_site_fract_y
 _atom_site_fract_z
 _atom_site_occupancy
  Sr  Sr0  1  0.04648352  0.95975277  0.02247550  1
  Sr  Sr1  1  0.03943912  0.01470298  0.22154733  1
  Sr  Sr2  1  0.00180254  0.01925928  0.53477577  1
  Sr  Sr3  1  -0.00044289  0.01551366  0.77080697  1
  Sr  Sr4  1  0.51890338  0.04641631  0.01509624  1
  Sr  Sr5  1  0.51836330  0.99098070  0.27221663  1
  Sr  Sr6  1  0.48947015  0.00559033  0.48947421  1
  Sr  Sr7  1  0.49802743  0.01458843  0.75355089  1
  Sr  Sr8  1  0.37250404  0.27744551  0.95646732  1
  Sr  Sr9  1  0.26028709  0.28057379  0.28741810  1
  Sr  Sr10  1  0.22407885  0.27982982  0.54417309  1
  Sr  Sr11  1  0.25701750  0.32268128  0.74547831  1
  Sr  Sr12  1  0.94747510  0.49693553  0.02537923  1
  Sr  Sr13  1  0.99183085  0.51630948  0.27305781  1
  Sr  Sr14  1  0.98413834  0.50326592  0.48455773  1
  Sr  Sr15  1  0.97995850  0.49245974  0.74643570  1
  Sr  Sr16  1  0.72757732  0.25676999  0.02662390  1
  Sr  Sr17  1  0.76787963  0.25074841  0.22850151  1
  Sr  Sr18  1  0.71556502  0.25896054  0.50166587  1
  Sr  Sr19  1  0.76901091  0.28172946  0.77698757  1
  Sr  Sr20  1  0.41350232  0.55226200  0.00687706  1
  Sr  Sr21  1  0.47029544  0.56004103  0.25491233  1
  Sr  Sr22  1  0.46232128  0.36232237  0.45141387  1
  Sr  Sr23  1  0.48198059  0.51558938  0.78768297  1
  Sr  Sr24  1  0.22233111  0.75110883  0.06404064  1
  Sr  Sr25  1  0.20376469  0.79499025  0.25660234  1
  Sr  Sr26  1  0.27719034  0.83869370  0.51127740  1
  Sr  Sr27  1  0.25344955  0.76403476  0.75283820  1
  Sr  Sr28  1  0.88165432  0.74514151  0.96094975  1
  Sr  Sr29  1  0.70446894  0.72580824  0.30870675  1
  Sr  Sr30  1  0.75112131  0.78541001  0.50604724  1
  Sr  Sr31  1  0.74565346  0.77149803  0.75476281  1
  In  In32  1  0.04430529  0.27556693  0.13072189  1
  In  In33  1  0.95779577  0.19277614  0.38836366  1
  In  In34  1  0.91975603  0.25649939  0.61927239  1
  In  In35  1  0.98641545  0.26017904  0.88533734  1
  In  In36  1  0.42641373  0.25254442  0.14755616  1
  In  In37  1  0.52873792  0.22993417  0.33326579  1
  In  In38  1  0.53742514  0.35470624  0.62322082  1
  In  In39  1  0.51788944  0.24965913  0.84429052  1
  In  In40  1  0.22160151  0.48780638  0.15555349  1
  In  In41  1  0.23977001  0.56174160  0.38567029  1
  In  In42  1  0.21573533  0.52384603  0.61156549  1
  In  In43  1  0.19965352  0.54407187  0.86498316  1
  In  In44  1  0.96172287  0.75791985  0.16266962  1
  In  In45  1  0.01728479  0.79984989  0.41300984  1
  In  In46  1  0.98401116  0.73070443  0.62455795  1
  In  In47  1  0.04283619  0.76352973  0.84709295  1
  In  In48  1  0.70943099  0.50878843  0.14408039  1
  In  In49  1  0.76927432  0.45345392  0.37025266  1
  In  In50  1  0.71170551  0.55449978  0.64698212  1
  In  In51  1  0.73061878  0.53941233  0.88468117  1
  In  In52  1  0.51274244  0.78631697  0.10956306  1
  In  In53  1  0.45082338  0.73284500  0.39438612  1
  In  In54  1  0.48828020  0.72984288  0.65425412  1
  In  In55  1  0.52437307  0.77858883  0.89640720  1
  In  In56  1  0.27740717  0.00436607  0.12979314  1
  In  In57  1  0.19084544  0.06738643  0.38604806  1
  In  In58  1  0.26808030  0.00981681  0.64159272  1
  In  In59  1  0.27424373  0.02198471  0.89417380  1
  In  In60  1  0.75893452  0.03047857  0.15730371  1
  In  In61  1  0.77550125  0.00524128  0.37178347  1
  In  In62  1  0.74466314  0.02385431  0.61504562  1
  In  In63  1  0.73368773  0.00967895  0.90320508  1
  Br  Br64  1  0.03346963  0.33801763  0.00506930  1
  Br  Br65  1  0.09944185  0.18051258  0.29340343  1
  Br  Br66  1  0.08821568  0.17814609  0.49535937  1
  Br  Br67  1  0.92134180  0.18209085  0.75897958  1
  Br  Br68  1  0.54638961  0.23589568  0.99577605  1
  Br  Br69  1  0.61036092  0.15265558  0.23455793  1
  Br  Br70  1  0.53346116  0.20199144  0.50516949  1
  Br  Br71  1  0.44491231  0.33246682  0.74032915  1
  Br  Br72  1  0.22759119  0.57240084  0.02604615  1
  Br  Br73  1  0.41442506  0.37835614  0.24798823  1
  Br  Br74  1  0.15666474  0.43861145  0.49049951  1
  Br  Br75  1  0.29535647  0.50474161  0.74565506  1
  Br  Br76  1  0.04822152  0.77190330  0.01207133  1
  Br  Br77  1  0.02244173  0.84195235  0.28063330  1
  Br  Br78  1  0.88386801  0.65658484  0.51447929  1
  Br  Br79  1  0.10581130  0.63404953  0.76272244  1
  Br  Br80  1  0.84735791  0.64592032  0.06563966  1
  Br  Br81  1  0.83630111  0.41808984  0.23700838  1
  Br  Br82  1  0.86166711  0.37138280  0.51816384  1
  Br  Br83  1  0.65412953  0.60697620  0.76756416  1
  Br  Br84  1  0.39514243  0.73627487  0.00682645  1
  Br  Br85  1  0.52649481  0.74305413  0.26801014  1
  Br  Br86  1  0.45848703  0.82289575  0.52156438  1
  Br  Br87  1  0.58644896  0.86094023  0.75750639  1
  Br  Br88  1  0.23045226  0.92163290  0.00703865  1
  Br  Br89  1  0.21493800  0.98088417  0.26776758  1
  Br  Br90  1  0.30265173  0.02198532  0.50414507  1
  Br  Br91  1  0.32986313  0.93804286  0.76501174  1
  Br  Br92  1  0.70226742  0.07105292  0.02917161  1
  Br  Br93  1  0.68838675  0.90899314  0.26751300  1
  Br  Br94  1  0.66602046  0.95136063  0.50687840  1
  Br  Br95  1  0.83919878  0.93049729  0.76668804  1
  Br  Br96  1  0.09638197  0.09649120  0.10518041  1
  Br  Br97  1  0.00968212  0.00344273  0.40277546  1
  Br  Br98  1  0.06247477  0.06741957  0.65315522  1
  Br  Br99  1  0.07539072  0.03476492  0.89118015  1
  Br  Br100  1  0.49290720  0.98910738  0.14026798  1
  Br  Br101  1  0.58730500  0.07234501  0.38141663  1
  Br  Br102  1  0.72843196  0.22772533  0.63175257  1
  Br  Br103  1  0.62377928  0.15271935  0.76929889  1
  Br  Br104  1  0.37528542  0.38691530  0.05906221  1
  Br  Br105  1  0.30721536  0.26680143  0.41871130  1
  Br  Br106  1  0.37184753  0.39250193  0.56186792  1
  Br  Br107  1  0.37650505  0.44232788  0.89541023  1
  Br  Br108  1  0.13081419  0.66314963  0.17632639  1
  Br  Br109  1  0.04781809  0.61110962  0.38178435  1
  Br  Br110  1  0.02579780  0.54452522  0.61497959  1
  Br  Br111  1  0.21281679  0.75250932  0.87925038  1
  Br  Br112  1  0.77811776  0.43171201  0.01061638  1
  Br  Br113  1  0.95536089  0.40189718  0.37353203  1
  Br  Br114  1  0.84405891  0.40186475  0.68659412  1
  Br  Br115  1  0.87828258  0.40387898  0.84357471  1
  Br  Br116  1  0.50141634  0.57616898  0.12412277  1
  Br  Br117  1  0.65047737  0.54605528  0.27545776  1
  Br  Br118  1  0.51405300  0.53498435  0.65465172  1
  Br  Br119  1  0.54675900  0.58687903  0.91664398  1
  Br  Br120  1  0.33487486  0.81197605  0.16119241  1
  Br  Br121  1  0.42427744  0.91885108  0.37276825  1
  Br  Br122  1  0.47268126  0.02111058  0.62626374  1
  Br  Br123  1  0.48464771  0.03891504  0.88423696  1
  Br  Br124  1  0.91486819  0.94899831  0.12827183  1
  Br  Br125  1  0.82277835  0.82396821  0.38837574  1
  Br  Br126  1  0.87397824  0.89403224  0.57644375  1
  Br  Br127  1  0.88497350  0.92901181  0.95788883  1
  Br  Br128  1  0.85223406  0.20371314  0.11644825  1
  Br  Br129  1  0.87752390  0.10353409  0.26590226  1
  Br  Br130  1  0.84216990  0.11698689  0.51037504  1
  Br  Br131  1  0.78352368  0.20335219  0.90312393  1
  Br  Br132  1  0.34511320  0.11947725  0.01720306  1
  Br  Br133  1  0.38953792  0.13870732  0.27957006  1
  Br  Br134  1  0.29369746  0.18978347  0.65126439  1
  Br  Br135  1  0.28151728  0.21416474  0.85139383  1
  Br  Br136  1  0.23802887  0.27377126  0.16045581  1
  Br  Br137  1  0.16606972  0.44110732  0.28885359  1
  Br  Br138  1  0.13673993  0.35610412  0.64808127  1
  Br  Br139  1  0.10677378  0.38792706  0.81340927  1
  Br  Br140  1  0.02567444  0.47429988  0.14406184  1
  Br  Br141  1  0.86336372  0.65213613  0.26059051  1
  Br  Br142  1  0.87765415  0.64884912  0.72696960  1
  Br  Br143  1  0.96356420  0.59161887  0.91441210  1
  Br  Br144  1  0.65185623  0.33154175  0.13962817  1
  Br  Br145  1  0.73601582  0.26958955  0.36450946  1
  Br  Br146  1  0.62585529  0.41967935  0.49310427  1
  Br  Br147  1  0.63130964  0.39161805  0.82471423  1
  Br  Br148  1  0.30756763  0.63844909  0.27477517  1
  Br  Br149  1  0.44071225  0.51592590  0.38427255  1
  Br  Br150  1  0.28196211  0.73861959  0.62388787  1
  Br  Br151  1  0.41849339  0.69256620  0.78160544  1
  Br  Br152  1  0.12352508  0.88072200  0.14128486  1
  Br  Br153  1  0.22076976  0.78212383  0.39446209  1
  Br  Br154  1  0.10381251  0.86608772  0.54290483  1
  Br  Br155  1  0.09459381  0.86236392  0.74165475  1
  Br  Br156  1  0.58906228  0.87807179  -0.00062296  1
  Br  Br157  1  0.63516059  0.69235179  0.42713047  1
  Br  Br158  1  0.69000874  0.74300559  0.62703700  1
  Br  Br159  1  0.73563047  0.75336569  0.88494639  1
