# generated using pymatgen
data_SrLiF3
_symmetry_space_group_name_H-M   'P 1'
_cell_length_a   10.97337235
_cell_length_b   10.97337235
_cell_length_c   15.51869200
_cell_angle_alpha   90.00000000
_cell_angle_beta   90.00000000
_cell_angle_gamma   90.00000000
_symmetry_Int_Tables_number   1
_chemical_formula_structural   SrLiF3
_chemical_formula_sum   'Sr32 Li32 F96'
_cell_volume   1868.68175610
_cell_formula_units_Z   32
loop_
 _symmetry_equiv_pos_site_id
 _symmetry_equiv_pos_as_xyz
  1  'x, y, z'
loop_
 _atom_site_type_symbol
 _atom_site_label
 _atom_site_symmetry_multiplicity
 _atom_site_fract_x
 _atom_site_fract_y
 _atom_site_fract_z
 _atom_site_occupancy
  F  F0  1  0.03588468  0.24776008  0.00004280  1
  F  F1  1  -0.03885406  0.25206419  0.25006239  1
  F  F2  1  0.03573826  0.24780629  0.49992649  1
  F  F3  1  0.96180393  0.25167478  0.75004809  1
  F  F4  1  0.49564947  0.28653208  -0.00000393  1
  F  F5  1  0.50094388  0.21365562  0.24999930  1
  F  F6  1  0.49620769  0.28616026  0.49995920  1
  F  F7  1  0.50168130  0.21289372  0.74994891  1
  F  F8  1  0.25082066  0.46249624  0.00004301  1
  F  F9  1  0.24661403  0.53745271  0.25003318  1
  F  F10  1  0.25084825  0.46265742  0.49992592  1
  F  F11  1  0.24690376  0.53678051  0.75001497  1
  F  F12  1  -0.00433248  0.78654196  0.00000896  1
  F  F13  1  0.00094654  0.71365022  0.24999392  1
  F  F14  1  -0.00389783  0.78614936  0.49997014  1
  F  F15  1  0.00165868  0.71288092  0.74994217  1
  F  F16  1  0.71201264  0.50271933  -0.00000158  1
  F  F17  1  0.78510566  0.49722852  0.25002800  1
  F  F18  1  0.71230958  0.50229565  0.49997093  1
  F  F19  1  0.78572119  0.49674138  0.74998463  1
  F  F20  1  0.53587858  0.74773972  0.00006090  1
  F  F21  1  0.46113984  0.75205719  0.25005028  1
  F  F22  1  0.53574336  0.74777760  0.49989165  1
  F  F23  1  0.46175109  0.75170683  0.75004614  1
  F  F24  1  0.21199453  0.00274007  0.00000491  1
  F  F25  1  0.28509512  -0.00274121  0.25002090  1
  F  F26  1  0.21233793  0.00227654  0.49997827  1
  F  F27  1  0.28572704  -0.00327319  0.74997294  1
  F  F28  1  0.75076881  -0.03756134  0.00002937  1
  F  F29  1  0.74661415  0.03741144  0.25002473  1
  F  F30  1  0.75084563  0.96265769  0.49992699  1
  F  F31  1  0.74691395  0.03678840  0.75003158  1
  F  F32  1  0.10633006  0.10807195  0.14478895  1
  F  F33  1  0.14061740  0.14220112  0.35543500  1
  F  F34  1  0.10708480  0.10751489  0.64456829  1
  F  F35  1  0.14123189  0.14194582  0.85529543  1
  F  F36  1  0.60641534  0.10802480  0.10540206  1
  F  F37  1  0.64077189  0.14224572  0.39447452  1
  F  F38  1  0.60714542  0.10752306  0.60531781  1
  F  F39  1  0.64112857  0.14195694  0.89472543  1
  F  F40  1  0.39022702  0.39208414  0.14469524  1
  F  F41  1  0.35617658  0.35777050  0.35546436  1
  F  F42  1  0.39095607  0.39140051  0.64458602  1
  F  F43  1  0.35651923  0.35729074  0.85519829  1
  F  F44  1  0.10636200  0.60801488  0.10539435  1
  F  F45  1  0.14078615  0.64226587  0.39449666  1
  F  F46  1  0.10715680  0.60752461  0.60529714  1
  F  F47  1  0.14113351  0.64196076  0.89474557  1
  F  F48  1  0.89036622  0.39197708  0.10536392  1
  F  F49  1  0.85629214  0.35776414  0.39460364  1
  F  F50  1  0.89104366  0.39144659  0.60535165  1
  F  F51  1  0.85651535  0.35730798  0.89475068  1
  F  F52  1  0.60629692  0.60803296  0.14477617  1
  F  F53  1  0.64065962  0.64216133  0.35540621  1
  F  F54  1  0.60707144  0.60755526  0.64457744  1
  F  F55  1  0.64124235  0.64192129  0.85527245  1
  F  F56  1  0.39034132  0.89197514  0.10534435  1
  F  F57  1  0.35631322  0.85775463  0.39458231  1
  F  F58  1  0.39102239  0.89144275  0.60531554  1
  F  F59  1  0.35652529  0.85733869  0.89480331  1
  F  F60  1  0.89024703  0.89209824  0.14468617  1
  F  F61  1  0.85617107  0.85776331  0.35543692  1
  F  F62  1  0.89097948  0.89142482  0.64458300  1
  F  F63  1  0.85653062  0.85729646  0.85520425  1
  F  F64  1  0.85929167  0.13918252  0.10684485  1
  F  F65  1  0.89155564  0.10687182  0.38995507  1
  F  F66  1  0.86013652  0.13846203  0.60696435  1
  F  F67  1  0.89218909  0.10622932  0.88974395  1
  F  F68  1  0.35586938  0.14256782  0.11083311  1
  F  F69  1  0.38802652  0.11037089  0.39256511  1
  F  F70  1  0.35670576  0.14185578  0.61048965  1
  F  F71  1  0.38851356  0.10996425  0.89269726  1
  F  F72  1  0.13745441  0.36105385  0.14324709  1
  F  F73  1  0.10520865  0.39336608  0.36013452  1
  F  F74  1  0.13828454  0.36031999  0.64303335  1
  F  F75  1  0.10555192  0.39290357  0.86033078  1
  F  F76  1  0.85583453  0.64258763  0.11085266  1
  F  F77  1  0.88804438  0.61035870  0.39258511  1
  F  F78  1  0.85670228  0.64186079  0.61051626  1
  F  F79  1  0.88850348  0.60996020  0.89268650  1
  F  F80  1  0.64075211  0.35768884  0.13922679  1
  F  F81  1  0.60863780  0.38980129  0.35729696  1
  F  F82  1  0.64168467  0.35690347  0.63922134  1
  F  F83  1  0.60919654  0.38921756  0.85735696  1
  F  F84  1  0.35925599  0.63921892  0.10687727  1
  F  F85  1  0.39157590  0.60686007  0.38995709  1
  F  F86  1  0.36012456  0.63847816  0.60698171  1
  F  F87  1  0.39221882  0.60621914  0.88975135  1
  F  F88  1  0.14072559  0.85774560  0.13923956  1
  F  F89  1  0.10864099  0.88979750  0.35734247  1
  F  F90  1  0.14166513  0.85686282  0.63919769  1
  F  F91  1  0.10920059  0.88919846  0.85733419  1
  F  F92  1  0.63744061  0.86103669  0.14322665  1
  F  F93  1  0.60521970  0.89334821  0.36013435  1
  F  F94  1  0.63827555  0.86029548  0.64300804  1
  F  F95  1  0.60554563  0.89288177  0.86031732  1
  Li  Li96  1  -0.00162270  0.25010288  0.12508684  1
  Li  Li97  1  -0.00149408  0.25005791  0.37496438  1
  Li  Li98  1  -0.00093533  0.24950068  0.62498098  1
  Li  Li99  1  -0.00111829  0.24952659  0.87504377  1
  Li  Li100  1  0.49822561  0.25012352  0.12503943  1
  Li  Li101  1  0.49848424  0.25002592  0.37498088  1
  Li  Li102  1  0.49923729  0.24956725  0.62488847  1
  Li  Li103  1  0.49884269  0.24957475  0.87498316  1
  Li  Li104  1  0.24841892  0.50001153  0.12499397  1
  Li  Li105  1  0.24846084  0.49998575  0.37496464  1
  Li  Li106  1  0.24903593  0.49953839  0.62495948  1
  Li  Li107  1  0.24895494  0.49960100  0.87507371  1
  Li  Li108  1  -0.00179508  0.75012844  0.12501090  1
  Li  Li109  1  -0.00149592  0.75001903  0.37499778  1
  Li  Li110  1  -0.00075869  0.74954076  0.62487258  1
  Li  Li111  1  -0.00113918  0.74953313  0.87501195  1
  Li  Li112  1  0.74842043  0.50012728  0.12505699  1
  Li  Li113  1  0.74846878  0.49994988  0.37500628  1
  Li  Li114  1  0.74899920  0.49931915  0.62492301  1
  Li  Li115  1  0.74889291  0.49968768  0.87499454  1
  Li  Li116  1  0.49838804  0.75012828  0.12508371  1
  Li  Li117  1  0.49855380  0.75005319  0.37494148  1
  Li  Li118  1  0.49904884  0.74948553  0.62497581  1
  Li  Li119  1  0.49888223  0.74950098  0.87507383  1
  Li  Li120  1  0.24840780  0.00016893  0.12504796  1
  Li  Li121  1  0.24849060  -0.00004535  0.37500373  1
  Li  Li122  1  0.24900382  -0.00068309  0.62493345  1
  Li  Li123  1  0.24889532  -0.00032332  0.87500658  1
  Li  Li124  1  0.74843313  -0.00000196  0.12498924  1
  Li  Li125  1  0.74847018  0.00000417  0.37497813  1
  Li  Li126  1  0.74908006  -0.00045627  0.62495791  1
  Li  Li127  1  0.74893736  -0.00041610  0.87504503  1
  Sr  Sr128  1  -0.01070335  0.00926330  0.01357991  1
  Sr  Sr129  1  -0.01518826  0.01353742  0.25954428  1
  Sr  Sr130  1  0.98968643  0.00877769  0.51314813  1
  Sr  Sr131  1  -0.01454199  0.01299872  0.75947507  1
  Sr  Sr132  1  0.51222258  -0.01384024  -0.00947078  1
  Sr  Sr133  1  0.50770308  -0.00899940  0.23665961  1
  Sr  Sr134  1  0.51184397  -0.01335295  0.49044715  1
  Sr  Sr135  1  0.50841918  -0.00983504  0.73658515  1
  Sr  Sr136  1  0.25854918  0.23990331  -0.01346687  1
  Sr  Sr137  1  0.26143268  0.23691445  0.24050359  1
  Sr  Sr138  1  0.25839149  0.24002316  0.48689090  1
  Sr  Sr139  1  0.26234272  0.23615833  0.74030933  1
  Sr  Sr140  1  0.01219689  0.48614228  -0.00946420  1
  Sr  Sr141  1  0.00770532  0.49096805  0.23666854  1
  Sr  Sr142  1  0.01182648  0.48662052  0.49045585  1
  Sr  Sr143  1  0.00841954  0.49014512  0.73658324  1
  Sr  Sr144  1  0.73514555  0.26323431  0.00964739  1
  Sr  Sr145  1  0.73859570  0.26007776  0.26320715  1
  Sr  Sr146  1  0.73610024  0.26237065  0.50955682  1
  Sr  Sr147  1  0.73919975  0.25943660  0.76339828  1
  Sr  Sr148  1  0.48929664  0.50922135  0.01359501  1
  Sr  Sr149  1  0.48479540  0.51351697  0.25952632  1
  Sr  Sr150  1  0.48967717  0.50877245  0.51312221  1
  Sr  Sr151  1  0.48542482  0.51300129  0.75946129  1
  Sr  Sr152  1  0.23516189  0.76325855  0.00963365  1
  Sr  Sr153  1  0.23858880  0.76008577  0.26323901  1
  Sr  Sr154  1  0.23614288  0.76240460  0.50952211  1
  Sr  Sr155  1  0.23918333  0.75940707  0.76340143  1
  Sr  Sr156  1  0.75852528  0.73989913  -0.01345913  1
  Sr  Sr157  1  0.76140894  0.73693352  0.24051304  1
  Sr  Sr158  1  0.75839866  0.74005282  0.48690109  1
  Sr  Sr159  1  0.76233109  0.73617878  0.74030413  1
