# generated using pymatgen
data_SrTlCl3
_symmetry_space_group_name_H-M   'P 1'
_cell_length_a   16.11631553
_cell_length_b   16.11631553
_cell_length_c   22.79191100
_cell_angle_alpha   90.00000000
_cell_angle_beta   90.00000000
_cell_angle_gamma   90.00000000
_symmetry_Int_Tables_number   1
_chemical_formula_structural   SrTlCl3
_chemical_formula_sum   'Sr32 Tl32 Cl96'
_cell_volume   5919.87127834
_cell_formula_units_Z   32
loop_
 _symmetry_equiv_pos_site_id
 _symmetry_equiv_pos_as_xyz
  1  'x, y, z'
loop_
 _atom_site_type_symbol
 _atom_site_label
 _atom_site_symmetry_multiplicity
 _atom_site_fract_x
 _atom_site_fract_y
 _atom_site_fract_z
 _atom_site_occupancy
  Sr  Sr0  1  0.99037746  0.02415725  0.03429373  1
  Sr  Sr1  1  -0.00622138  0.03073367  0.23050670  1
  Sr  Sr2  1  0.03580017  0.04340831  0.54304406  1
  Sr  Sr3  1  0.92341102  0.98224083  0.71691453  1
  Sr  Sr4  1  0.50224927  0.99192468  0.01832927  1
  Sr  Sr5  1  0.44590986  0.02063261  0.26211259  1
  Sr  Sr6  1  0.52586685  0.08721255  0.48128019  1
  Sr  Sr7  1  0.40974324  0.05841892  0.80697983  1
  Sr  Sr8  1  0.27576720  0.21057218  0.94202909  1
  Sr  Sr9  1  0.18928095  0.24691367  0.26193691  1
  Sr  Sr10  1  0.23028465  0.26434829  0.52210937  1
  Sr  Sr11  1  0.20865476  0.32568242  0.77437084  1
  Sr  Sr12  1  0.90523544  0.52665727  0.07899233  1
  Sr  Sr13  1  0.00542827  0.53583989  0.25013734  1
  Sr  Sr14  1  0.97496528  0.50032647  0.50248133  1
  Sr  Sr15  1  0.03576327  0.62789351  0.72004849  1
  Sr  Sr16  1  0.76853154  0.26697642  0.01381357  1
  Sr  Sr17  1  0.91501359  0.26812384  0.18637429  1
  Sr  Sr18  1  0.70245580  0.28198829  0.51044514  1
  Sr  Sr19  1  0.68939324  0.25962349  0.74914272  1
  Sr  Sr20  1  0.51399805  0.48580579  0.97454327  1
  Sr  Sr21  1  0.48839272  0.54551742  0.28496405  1
  Sr  Sr22  1  0.49363656  0.50621059  0.47719570  1
  Sr  Sr23  1  0.49780356  0.52248774  0.78083441  1
  Sr  Sr24  1  0.38477268  0.73453785  0.04192507  1
  Sr  Sr25  1  0.27672759  0.73458248  0.27412605  1
  Sr  Sr26  1  0.20551632  0.73018512  0.51552239  1
  Sr  Sr27  1  0.29482945  0.75600789  0.70330858  1
  Sr  Sr28  1  0.74841078  0.74956906  0.01618510  1
  Sr  Sr29  1  0.79626666  0.73302546  0.21432585  1
  Sr  Sr30  1  0.71277584  0.68520596  0.40131300  1
  Sr  Sr31  1  0.78606819  0.74637074  0.75859181  1
  Tl  Tl32  1  0.12390546  0.31971676  0.07006850  1
  Tl  Tl33  1  0.00600615  0.21225660  0.39828958  1
  Tl  Tl34  1  0.97739907  0.33449825  0.67165229  1
  Tl  Tl35  1  0.92590272  0.19505235  0.83900161  1
  Tl  Tl36  1  0.43268929  0.28911530  0.10955429  1
  Tl  Tl37  1  0.49030483  0.27024353  0.31304403  1
  Tl  Tl38  1  0.45862137  0.28167252  0.63893301  1
  Tl  Tl39  1  0.54641738  0.22913125  0.92170115  1
  Tl  Tl40  1  0.27018082  0.52708718  0.12862431  1
  Tl  Tl41  1  0.22646260  0.48361420  0.39892889  1
  Tl  Tl42  1  0.26167890  0.48076706  0.62699793  1
  Tl  Tl43  1  0.24147438  0.55343673  0.87787281  1
  Tl  Tl44  1  0.09085194  0.75234124  0.07522189  1
  Tl  Tl45  1  0.98358952  0.76512047  0.37184780  1
  Tl  Tl46  1  0.89421685  0.76950359  0.56727226  1
  Tl  Tl47  1  0.95028784  0.81100839  0.90189205  1
  Tl  Tl48  1  0.66925177  0.45340844  0.14593219  1
  Tl  Tl49  1  0.81389652  0.45423592  0.36951728  1
  Tl  Tl50  1  0.73593947  0.51213623  0.65296955  1
  Tl  Tl51  1  0.76177490  0.49947563  0.86318158  1
  Tl  Tl52  1  0.56052203  0.78813390  0.20373608  1
  Tl  Tl53  1  0.43198972  0.79316087  0.44362558  1
  Tl  Tl54  1  0.55741241  0.77019860  0.60865178  1
  Tl  Tl55  1  0.56827660  0.74573321  0.87909388  1
  Tl  Tl56  1  0.24698240  0.03113475  0.10427869  1
  Tl  Tl57  1  0.23623502  0.98111907  0.38505428  1
  Tl  Tl58  1  0.26253030  0.99234328  0.60523428  1
  Tl  Tl59  1  0.23578396  0.86393288  0.90541065  1
  Tl  Tl60  1  0.69117320  0.07481662  0.15748553  1
  Tl  Tl61  1  0.80012085  0.97843953  0.37736918  1
  Tl  Tl62  1  0.70327308  0.02840803  0.61964905  1
  Tl  Tl63  1  0.76791145  0.01308373  0.90483180  1
  Cl  Cl64  1  0.88439169  0.13978633  0.97278874  1
  Cl  Cl65  1  0.04545906  0.35525635  0.25789240  1
  Cl  Cl66  1  0.04926984  0.22436540  0.54207533  1
  Cl  Cl67  1  0.06620237  0.22605005  0.75489762  1
  Cl  Cl68  1  0.59752280  0.34373341  0.02802817  1
  Cl  Cl69  1  0.34903726  0.16376515  0.24546204  1
  Cl  Cl70  1  0.55551695  0.25776347  0.44327855  1
  Cl  Cl71  1  0.58561334  0.40570610  0.70876891  1
  Cl  Cl72  1  0.37477093  0.36072924  0.98772691  1
  Cl  Cl73  1  0.31235287  0.55840943  0.25518138  1
  Cl  Cl74  1  0.14488337  0.43373996  0.52176487  1
  Cl  Cl75  1  0.10456785  0.46173269  0.72946231  1
  Cl  Cl76  1  0.91939754  0.67454865  0.00124942  1
  Cl  Cl77  1  0.95121665  0.66809007  0.16850745  1
  Cl  Cl78  1  0.04581818  0.66395245  0.48512804  1
  Cl  Cl79  1  0.95302254  0.79563480  0.71140307  1
  Cl  Cl80  1  0.79793848  0.44348426  0.99242613  1
  Cl  Cl81  1  0.63003230  0.61888300  0.22484843  1
  Cl  Cl82  1  0.81588526  0.57516948  0.47049702  1
  Cl  Cl83  1  0.65023621  0.62580290  0.78247099  1
  Cl  Cl84  1  0.55015067  0.81188508  0.01338935  1
  Cl  Cl85  1  0.44898266  0.71991647  0.31559102  1
  Cl  Cl86  1  0.34297991  0.61534589  0.48497473  1
  Cl  Cl87  1  0.43909760  0.65872007  0.70637395  1
  Cl  Cl88  1  0.33972120  0.90468728  0.01916885  1
  Cl  Cl89  1  0.12087200  0.09329733  0.31023699  1
  Cl  Cl90  1  0.20196908  0.08851454  0.49561352  1
  Cl  Cl91  1  0.34401107  0.91729078  0.74405043  1
  Cl  Cl92  1  0.85629611  0.90447462  0.00088005  1
  Cl  Cl93  1  0.90264617  0.88390145  0.26901051  1
  Cl  Cl94  1  0.70659789  0.10378048  0.48657842  1
  Cl  Cl95  1  0.75563821  0.91780650  0.73730356  1
  Cl  Cl96  1  0.08106832  0.17974879  0.16824314  1
  Cl  Cl97  1  0.21292324  0.29143996  0.38911434  1
  Cl  Cl98  1  0.08445108  0.02098299  0.66451294  1
  Cl  Cl99  1  0.14304958  0.13186946  0.01477545  1
  Cl  Cl100  1  0.64544140  0.10831866  0.01917498  1
  Cl  Cl101  1  0.59259267  0.11428705  0.27487003  1
  Cl  Cl102  1  0.65812971  0.22309976  0.62315093  1
  Cl  Cl103  1  0.54389790  0.15279361  0.75773924  1
  Cl  Cl104  1  0.51748458  0.39942725  0.21603667  1
  Cl  Cl105  1  0.41299538  0.44154599  0.37434363  1
  Cl  Cl106  1  0.37802150  0.39027533  0.53678066  1
  Cl  Cl107  1  0.34907522  0.22907667  0.82449413  1
  Cl  Cl108  1  0.07446036  0.50196035  0.12617383  1
  Cl  Cl109  1  0.11166679  0.66842096  0.28968282  1
  Cl  Cl110  1  0.16870315  0.67019316  0.63436117  1
  Cl  Cl111  1  0.17790494  0.69773565  0.79191701  1
  Cl  Cl112  1  0.93744303  0.32963264  0.06845454  1
  Cl  Cl113  1  0.86256380  0.34922181  0.48075703  1
  Cl  Cl114  1  0.81750269  0.38398249  0.74528007  1
  Cl  Cl115  1  0.72460010  0.23945210  0.88018846  1
  Cl  Cl116  1  0.75731894  0.62261211  0.10546190  1
  Cl  Cl117  1  0.57418461  0.67929949  0.48891308  1
  Cl  Cl118  1  0.73796176  0.71271707  0.63859282  1
  Cl  Cl119  1  0.64394018  0.61652915  0.95725115  1
  Cl  Cl120  1  0.50239176  0.97808958  0.14638881  1
  Cl  Cl121  1  0.30395979  0.91226476  0.25742825  1
  Cl  Cl122  1  0.33858798  0.80987698  0.58492546  1
  Cl  Cl123  1  0.24030096  0.68715292  0.98011917  1
  Cl  Cl124  1  0.07647135  0.94279243  0.13400317  1
  Cl  Cl125  1  0.81794483  0.81513964  0.44540088  1
  Cl  Cl126  1  0.88322635  0.96931139  0.59163789  1
  Cl  Cl127  1  0.75129872  0.79520316  0.88522275  1
  Cl  Cl128  1  0.89002619  0.08502711  0.13374063  1
  Cl  Cl129  1  0.89233383  0.15857798  0.28626602  1
  Cl  Cl130  1  0.82999606  0.14279166  0.72613291  1
  Cl  Cl131  1  0.94022858  -0.00227851  0.84284590  1
  Cl  Cl132  1  0.39092040  0.13510157  0.02755660  1
  Cl  Cl133  1  0.43913095  0.00034457  0.38931545  1
  Cl  Cl134  1  0.39367269  0.15162131  0.55192426  1
  Cl  Cl135  1  0.27451272  0.04693090  0.88764666  1
  Cl  Cl136  1  0.26249258  0.34094609  0.16496561  1
  Cl  Cl137  1  0.00024870  0.48498006  0.37686659  1
  Cl  Cl138  1  0.25298200  0.29119431  0.65075335  1
  Cl  Cl139  1  0.16996083  0.34017537  0.89825535  1
  Cl  Cl140  1  0.85987836  0.44988558  0.19840693  1
  Cl  Cl141  1  0.85238028  0.63767262  0.31615815  1
  Cl  Cl142  1  0.94052462  0.54979926  0.62391659  1
  Cl  Cl143  1  0.90019243  0.62149984  0.80296585  1
  Cl  Cl144  1  0.74338249  0.26074253  0.14158241  1
  Cl  Cl145  1  0.61601026  0.53122769  0.37725617  1
  Cl  Cl146  1  0.63072072  0.43889127  0.54282612  1
  Cl  Cl147  1  0.57218476  0.41253967  0.86764549  1
  Cl  Cl148  1  0.45398450  0.57758318  0.07495437  1
  Cl  Cl149  1  0.24468955  0.78683673  0.39710335  1
  Cl  Cl150  1  0.33052270  0.46132886  0.76789324  1
  Cl  Cl151  1  0.42876129  0.59807935  0.89101858  1
  Cl  Cl152  1  0.28355494  0.73243503  0.14487298  1
  Cl  Cl153  1  0.96302146  0.03497731  0.42796083  1
  Cl  Cl154  1  0.12623795  0.88664786  0.53168874  1
  Cl  Cl155  1  0.08560894  0.89027133  0.97795850  1
  Cl  Cl156  1  0.71685887  0.83869200  0.12998426  1
  Cl  Cl157  1  0.68229827  0.80545319  0.30525909  1
  Cl  Cl158  1  0.55505427  0.94121703  0.54873494  1
  Cl  Cl159  1  0.52027035  -0.00333953  0.89298212  1
