# generated using pymatgen
data_CaTlBr3
_symmetry_space_group_name_H-M   'P 1'
_cell_length_a   16.10539215
_cell_length_b   16.10539215
_cell_length_c   22.77646300
_cell_angle_alpha   90.00000000
_cell_angle_beta   90.00000000
_cell_angle_gamma   90.00000000
_symmetry_Int_Tables_number   1
_chemical_formula_structural   CaTlBr3
_chemical_formula_sum   'Ca32 Tl32 Br96'
_cell_volume   5907.84224760
_cell_formula_units_Z   32
loop_
 _symmetry_equiv_pos_site_id
 _symmetry_equiv_pos_as_xyz
  1  'x, y, z'
loop_
 _atom_site_type_symbol
 _atom_site_label
 _atom_site_symmetry_multiplicity
 _atom_site_fract_x
 _atom_site_fract_y
 _atom_site_fract_z
 _atom_site_occupancy
  Br  Br0  1  0.10627620  0.14432495  0.00533837  1
  Br  Br1  1  0.09354243  0.15783259  0.24513153  1
  Br  Br2  1  0.08513283  0.16507964  0.51102631  1
  Br  Br3  1  0.14406902  0.10590807  0.71942983  1
  Br  Br4  1  0.61375653  0.13709627  0.03250402  1
  Br  Br5  1  0.60884663  0.13933812  0.22691036  1
  Br  Br6  1  0.60395675  0.14403517  0.52675329  1
  Br  Br7  1  0.66001632  0.08970953  0.73024213  1
  Br  Br8  1  0.41579571  0.33701337  0.98664106  1
  Br  Br9  1  0.40744522  0.34392851  0.25014753  1
  Br  Br10  1  0.39563046  0.35241191  0.49015388  1
  Br  Br11  1  0.35724005  0.39336539  0.78162691  1
  Br  Br12  1  0.12039374  0.62815437  0.03448608  1
  Br  Br13  1  0.10810560  0.64155263  0.22310051  1
  Br  Br14  1  0.10128514  0.64788972  0.52895488  1
  Br  Br15  1  0.15578692  0.59374574  0.72853290  1
  Br  Br16  1  0.89776452  0.35277382  0.97059337  1
  Br  Br17  1  0.89059429  0.35747568  0.27696706  1
  Br  Br18  1  0.87638486  0.37127680  0.46722295  1
  Br  Br19  1  0.84388551  0.40609896  0.77152400  1
  Br  Br20  1  0.60483119  0.64936269  0.01184758  1
  Br  Br21  1  0.59689965  0.65576546  0.24875843  1
  Br  Br22  1  0.58632882  0.66299163  0.51253479  1
  Br  Br23  1  0.64300892  0.60644231  0.71813636  1
  Br  Br24  1  0.39754848  0.85342021  0.97283674  1
  Br  Br25  1  0.39552516  0.85550550  0.27593348  1
  Br  Br26  1  0.38721790  0.86160548  0.46706805  1
  Br  Br27  1  0.34091752  0.90808843  0.76919272  1
  Br  Br28  1  0.91615836  0.83494447  0.99105592  1
  Br  Br29  1  0.90949095  0.84306178  0.25681011  1
  Br  Br30  1  0.89578114  0.85626111  0.49145423  1
  Br  Br31  1  0.85571752  0.89354940  0.78044035  1
  Br  Br32  1  0.85364385  0.09233205  0.97816066  1
  Br  Br33  1  0.85606416  0.10605700  0.28038751  1
  Br  Br34  1  0.84645201  0.11017106  0.47558998  1
  Br  Br35  1  0.90410354  0.15135675  0.77596899  1
  Br  Br36  1  0.35997609  0.09734961  0.02330544  1
  Br  Br37  1  0.35667053  0.10506068  0.21888897  1
  Br  Br38  1  0.33894890  0.09892651  0.51965047  1
  Br  Br39  1  0.40683448  0.15489543  0.72756967  1
  Br  Br40  1  0.14860738  0.38501729  0.96301783  1
  Br  Br41  1  0.15682972  0.40572258  0.26611570  1
  Br  Br42  1  0.14444814  0.40835912  0.48255161  1
  Br  Br43  1  0.10234814  0.35031203  0.77179657  1
  Br  Br44  1  0.86133795  0.59680371  0.02271329  1
  Br  Br45  1  0.85675987  0.60281655  0.22316379  1
  Br  Br46  1  0.85229182  0.61459515  0.53465976  1
  Br  Br47  1  0.89684867  0.64860364  0.72699360  1
  Br  Br48  1  0.66100969  0.40003580  0.01532431  1
  Br  Br49  1  0.65647874  0.40342353  0.23172736  1
  Br  Br50  1  0.63628681  0.39789491  0.53469492  1
  Br  Br51  1  0.60106408  0.34842523  0.73054064  1
  Br  Br52  1  0.36438326  0.60201625  0.96549187  1
  Br  Br53  1  0.34661857  0.59765477  0.26894506  1
  Br  Br54  1  0.34046433  0.60097343  0.48400827  1
  Br  Br55  1  0.39870446  0.65024782  0.76990189  1
  Br  Br56  1  0.16007030  0.89441635  0.01808467  1
  Br  Br57  1  0.15285441  0.90057101  0.22663052  1
  Br  Br58  1  0.14982873  0.90953950  0.51970008  1
  Br  Br59  1  0.09527132  0.84717752  0.72452164  1
  Br  Br60  1  0.66256091  0.90101560  0.97902400  1
  Br  Br61  1  0.64469454  0.89405696  0.28102796  1
  Br  Br62  1  0.64122381  0.90236397  0.47490833  1
  Br  Br63  1  0.59356196  0.84436655  0.77188794  1
  Br  Br64  1  0.96411004  0.01766317  0.12389767  1
  Br  Br65  1  0.03834004  0.00181603  0.37673021  1
  Br  Br66  1  0.94841211  0.01464633  0.62630679  1
  Br  Br67  1  0.04974332  0.98237237  0.87353526  1
  Br  Br68  1  0.50772852  0.94612731  0.12454971  1
  Br  Br69  1  0.49039363  0.05027486  0.37491149  1
  Br  Br70  1  0.49022366  0.95384060  0.62502449  1
  Br  Br71  1  0.51180482  0.04483991  0.87463948  1
  Br  Br72  1  0.24637965  0.28654014  0.12109958  1
  Br  Br73  1  0.26470875  0.21441238  0.37410706  1
  Br  Br74  1  0.24405459  0.29731260  0.62503777  1
  Br  Br75  1  0.26169251  0.19498827  0.87191822  1
  Br  Br76  1  0.00394027  0.44586284  0.12457603  1
  Br  Br77  1  0.99745553  0.54995996  0.37486741  1
  Br  Br78  1  0.98954246  0.45094664  0.62586248  1
  Br  Br79  1  0.00907394  0.54948330  0.87442116  1
  Br  Br80  1  0.80287752  0.24517847  0.12377408  1
  Br  Br81  1  0.69799298  0.26088151  0.37513603  1
  Br  Br82  1  0.79818121  0.25220555  0.62610269  1
  Br  Br83  1  0.70231459  0.23674994  0.87454105  1
  Br  Br84  1  0.46385827  0.51810432  0.12414827  1
  Br  Br85  1  0.53664295  0.48148196  0.37631639  1
  Br  Br86  1  0.44824663  0.49777952  0.62664623  1
  Br  Br87  1  0.55319777  0.50317181  0.87373200  1
  Br  Br88  1  0.30174353  0.74136976  0.12560412  1
  Br  Br89  1  0.19554195  0.75096661  0.37600836  1
  Br  Br90  1  0.29735082  0.76302556  0.62484389  1
  Br  Br91  1  0.20293880  0.74404348  0.87433853  1
  Br  Br92  1  0.75233048  0.78729209  0.12499724  1
  Br  Br93  1  0.76254294  0.71084769  0.37751758  1
  Br  Br94  1  0.74161553  0.80476320  0.62674875  1
  Br  Br95  1  0.75719015  0.70086226  0.87455151  1
  Ca  Ca96  1  0.00677629  0.99137624  -0.00069072  1
  Ca  Ca97  1  0.00380601  -0.00146240  0.24904255  1
  Ca  Ca98  1  0.99653760  0.00746715  0.50227250  1
  Ca  Ca99  1  0.00004458  -0.00028099  0.74993066  1
  Ca  Ca100  1  0.50828696  0.99548818  0.99902719  1
  Ca  Ca101  1  0.49985665  0.99868944  0.24915578  1
  Ca  Ca102  1  0.49199732  0.00271084  0.50097293  1
  Ca  Ca103  1  0.49986954  -0.00067221  0.75007832  1
  Ca  Ca104  1  0.25885643  0.24740654  0.99569333  1
  Ca  Ca105  1  0.24986642  0.24995305  0.24836380  1
  Ca  Ca106  1  0.24201517  0.25462120  0.49960056  1
  Ca  Ca107  1  0.25266152  0.24891385  0.74862370  1
  Ca  Ca108  1  0.01141255  0.49429360  0.99796380  1
  Ca  Ca109  1  0.00155986  0.49732357  0.25010758  1
  Ca  Ca110  1  0.99061325  0.50355209  0.50167119  1
  Ca  Ca111  1  0.00017588  0.50017857  0.75026793  1
  Ca  Ca112  1  0.75285393  0.24452850  0.99777038  1
  Ca  Ca113  1  0.74913096  0.24706399  0.24758878  1
  Ca  Ca114  1  0.74458494  0.25896122  0.50288192  1
  Ca  Ca115  1  0.75273633  0.24821982  0.75095580  1
  Ca  Ca116  1  0.50466057  0.49400792  0.99943979  1
  Ca  Ca117  1  0.50138377  0.50006167  0.25009668  1
  Ca  Ca118  1  0.49627414  0.50687600  0.50102483  1
  Ca  Ca119  1  0.50033659  0.49955993  0.75021251  1
  Ca  Ca120  1  0.25423360  0.73958979  0.99904532  1
  Ca  Ca121  1  0.24969711  0.75303601  0.25211693  1
  Ca  Ca122  1  0.24645971  0.75518566  0.50111068  1
  Ca  Ca123  1  0.24726284  0.75098124  0.74872722  1
  Ca  Ca124  1  0.75742764  0.74675698  0.99869731  1
  Ca  Ca125  1  0.75296179  0.75063521  0.25189823  1
  Ca  Ca126  1  0.74270916  0.75290269  0.50224669  1
  Ca  Ca127  1  0.74765779  0.75079025  0.75080322  1
  Tl  Tl128  1  0.01511941  0.22804615  0.12181353  1
  Tl  Tl129  1  0.97729135  0.20718279  0.37406355  1
  Tl  Tl130  1  0.01373018  0.23274853  0.64662277  1
  Tl  Tl131  1  0.03118082  0.24332149  0.88630378  1
  Tl  Tl132  1  0.45794604  0.22616338  0.12450119  1
  Tl  Tl133  1  0.47845536  0.26641344  0.37326877  1
  Tl  Tl134  1  0.49012046  0.28699172  0.61353490  1
  Tl  Tl135  1  0.48191082  0.25475226  0.85103587  1
  Tl  Tl136  1  0.24309829  0.51946146  0.15267014  1
  Tl  Tl137  1  0.21046588  0.53922848  0.37648613  1
  Tl  Tl138  1  0.23679006  0.50636618  0.59896054  1
  Tl  Tl139  1  0.22693123  0.52308319  0.85867516  1
  Tl  Tl140  1  0.96320901  0.72397824  0.12453545  1
  Tl  Tl141  1  0.97956886  0.75833365  0.37809881  1
  Tl  Tl142  1  0.96677368  0.75706595  0.61292606  1
  Tl  Tl143  1  0.98988060  0.77041719  0.85396869  1
  Tl  Tl144  1  0.79165184  0.45796722  0.12382902  1
  Tl  Tl145  1  0.75077145  0.46248325  0.35940683  1
  Tl  Tl146  1  0.77539914  0.47995244  0.64077964  1
  Tl  Tl147  1  0.76294702  0.49219625  0.89844946  1
  Tl  Tl148  1  0.51056263  0.72896198  0.12794710  1
  Tl  Tl149  1  0.53653959  0.77363412  0.37256082  1
  Tl  Tl150  1  0.51485995  0.74247498  0.64930690  1
  Tl  Tl151  1  0.50841514  0.71344108  0.88734400  1
  Tl  Tl152  1  0.29145998  0.95435633  0.12462828  1
  Tl  Tl153  1  0.25684405  -0.00138329  0.40454557  1
  Tl  Tl154  1  0.27110316  0.97413323  0.63717333  1
  Tl  Tl155  1  0.25838229  0.98008924  0.89854606  1
  Tl  Tl156  1  0.75074268  0.00495436  0.09125243  1
  Tl  Tl157  1  0.70334393  0.04472336  0.37427431  1
  Tl  Tl158  1  0.74044446  0.01698495  0.60394383  1
  Tl  Tl159  1  0.73042918  0.02578328  0.86194913  1
