# generated using pymatgen
data_CaTlI3
_symmetry_space_group_name_H-M   'P 1'
_cell_length_a   17.36872892
_cell_length_b   17.36872892
_cell_length_c   24.56309200
_cell_angle_alpha   90.00000000
_cell_angle_beta   90.00000000
_cell_angle_gamma   90.00000000
_symmetry_Int_Tables_number   1
_chemical_formula_structural   CaTlI3
_chemical_formula_sum   'Ca32 Tl32 I96'
_cell_volume   7410.01537214
_cell_formula_units_Z   32
loop_
 _symmetry_equiv_pos_site_id
 _symmetry_equiv_pos_as_xyz
  1  'x, y, z'
loop_
 _atom_site_type_symbol
 _atom_site_label
 _atom_site_symmetry_multiplicity
 _atom_site_fract_x
 _atom_site_fract_y
 _atom_site_fract_z
 _atom_site_occupancy
  Ca  Ca0  1  0.99385820  0.00218871  -0.00042587  1
  Ca  Ca1  1  -0.00015747  -0.00050747  0.24789640  1
  Ca  Ca2  1  0.00041890  0.00013094  0.49585268  1
  Ca  Ca3  1  0.00373737  0.00163033  0.75149368  1
  Ca  Ca4  1  0.49922396  -0.00069243  -0.00049028  1
  Ca  Ca5  1  0.49681559  0.00009061  0.24870532  1
  Ca  Ca6  1  0.49961998  0.00401813  0.50057462  1
  Ca  Ca7  1  0.50218056  0.00933802  0.75023302  1
  Ca  Ca8  1  0.25087050  0.25022735  0.00242185  1
  Ca  Ca9  1  0.24915356  0.25496917  0.24611663  1
  Ca  Ca10  1  0.25302698  0.25189351  0.50083029  1
  Ca  Ca11  1  0.24850221  0.24898483  0.74998913  1
  Ca  Ca12  1  0.99529728  0.50154054  0.00005774  1
  Ca  Ca13  1  -0.00150306  0.50237893  0.24851042  1
  Ca  Ca14  1  0.00226724  0.50138529  0.50315109  1
  Ca  Ca15  1  0.00189786  0.49928250  0.74930646  1
  Ca  Ca16  1  0.74752649  0.25281126  0.00028374  1
  Ca  Ca17  1  0.74880273  0.25556840  0.25077871  1
  Ca  Ca18  1  0.75177252  0.25195112  0.49677776  1
  Ca  Ca19  1  0.75355171  0.24846769  0.75108160  1
  Ca  Ca20  1  0.49942397  0.49731141  0.99833167  1
  Ca  Ca21  1  0.49920176  0.49859660  0.24815669  1
  Ca  Ca22  1  0.49749047  0.50175628  0.49737777  1
  Ca  Ca23  1  0.50147814  0.50606677  0.75036517  1
  Ca  Ca24  1  0.24976189  0.74784456  0.99814924  1
  Ca  Ca25  1  0.25238289  0.75158264  0.24899564  1
  Ca  Ca26  1  0.25571351  0.74955645  0.49815018  1
  Ca  Ca27  1  0.25148880  0.75576230  0.74961664  1
  Ca  Ca28  1  0.74656174  0.75354854  0.00107447  1
  Ca  Ca29  1  0.75512542  0.74873602  0.24584463  1
  Ca  Ca30  1  0.75197236  0.75015829  0.49849529  1
  Ca  Ca31  1  0.74805703  0.75439114  0.74981111  1
  I  I32  1  0.10366935  0.14472435  0.02088953  1
  I  I33  1  0.13317141  0.11847823  0.21672745  1
  I  I34  1  0.14959385  0.10050397  0.52193325  1
  I  I35  1  0.13951285  0.11144758  0.71304608  1
  I  I36  1  0.59884839  0.14932507  0.97537269  1
  I  I37  1  0.64437054  0.10582127  0.27741021  1
  I  I38  1  0.65348073  0.09961565  0.47705429  1
  I  I39  1  0.64559181  0.11000269  0.78762183  1
  I  I40  1  0.39246691  0.35406819  0.97496968  1
  I  I41  1  0.36191280  0.38912971  0.28377744  1
  I  I42  1  0.35607899  0.39481629  0.47243425  1
  I  I43  1  0.35391056  0.40209627  0.77268105  1
  I  I44  1  0.10468148  0.64406164  0.97580779  1
  I  I45  1  0.14576557  0.60742510  0.27928517  1
  I  I46  1  0.14968294  0.60337504  0.47285618  1
  I  I47  1  0.15103876  0.60640820  0.77398508  1
  I  I48  1  0.88271021  0.36673589  0.03076867  1
  I  I49  1  0.85919202  0.39242976  0.21555807  1
  I  I50  1  0.84894315  0.40461004  0.52305758  1
  I  I51  1  0.85091459  0.40033039  0.72439721  1
  I  I52  1  0.61491200  0.63316224  0.02486611  1
  I  I53  1  0.64840161  0.60137434  0.21719886  1
  I  I54  1  0.65183334  0.59990589  0.52123050  1
  I  I55  1  0.64996738  0.60467016  0.72150848  1
  I  I56  1  0.39511454  0.85204662  0.01999595  1
  I  I57  1  0.36064554  0.89041776  0.21687036  1
  I  I58  1  0.34838373  0.90382810  0.52120387  1
  I  I59  1  0.35500569  0.90333821  0.72125754  1
  I  I60  1  0.88233345  0.86681598  0.96722818  1
  I  I61  1  0.85048953  0.90084685  0.27473440  1
  I  I62  1  0.84796346  0.90391455  0.47532992  1
  I  I63  1  0.86185451  0.89121024  0.78169345  1
  I  I64  1  0.86568474  0.12338085  0.96299023  1
  I  I65  1  0.89868197  0.15238050  0.27009966  1
  I  I66  1  0.90998286  0.15878200  0.48677307  1
  I  I67  1  0.90720665  0.15508731  0.76772901  1
  I  I68  1  0.35478559  0.10439536  0.03291074  1
  I  I69  1  0.39951926  0.15201013  0.22494365  1
  I  I70  1  0.39999353  0.15150501  0.52452436  1
  I  I71  1  0.40739137  0.16279274  0.73501190  1
  I  I72  1  0.13335325  0.38658665  0.97298393  1
  I  I73  1  0.10301021  0.35605842  0.27703228  1
  I  I74  1  0.10272319  0.35214223  0.47426021  1
  I  I75  1  0.10998603  0.36032867  0.78361550  1
  I  I76  1  0.87089695  0.62649408  0.03443506  1
  I  I77  1  0.90715102  0.65548108  0.22481730  1
  I  I78  1  0.90764178  0.65856561  0.51577566  1
  I  I79  1  0.90351714  0.65537434  0.73300955  1
  I  I80  1  0.62692816  0.37809509  0.03792385  1
  I  I81  1  0.59322073  0.34401023  0.22436801  1
  I  I82  1  0.60302446  0.35281293  0.52542012  1
  I  I83  1  0.60312716  0.35183000  0.72672441  1
  I  I84  1  0.35563500  0.60452951  0.96604818  1
  I  I85  1  0.40754098  0.65472612  0.26652620  1
  I  I86  1  0.40609197  0.65460941  0.47521349  1
  I  I87  1  0.40671998  0.66105823  0.76959986  1
  I  I88  1  0.13627319  0.88999684  0.02503805  1
  I  I89  1  0.10931374  0.86044057  0.21558650  1
  I  I90  1  0.10109388  0.85119952  0.52455478  1
  I  I91  1  0.10293173  0.85434544  0.72213009  1
  I  I92  1  0.62869253  0.88296006  0.96239143  1
  I  I93  1  0.60367138  0.85358495  0.27053170  1
  I  I94  1  0.60232229  0.85248569  0.47515783  1
  I  I95  1  0.59393758  0.85005312  0.77079433  1
  I  I96  1  0.94280178  0.01441267  0.12404388  1
  I  I97  1  0.05074316  0.00509062  0.37229590  1
  I  I98  1  0.95086065  0.99951508  0.62430556  1
  I  I99  1  0.05349062  0.00950824  0.87539814  1
  I  I100  1  0.55025046  0.01677047  0.12333056  1
  I  I101  1  0.45545696  0.01562631  0.37448774  1
  I  I102  1  0.54812513  0.98577194  0.62541844  1
  I  I103  1  0.44369805  0.99570296  0.87528199  1
  I  I104  1  0.25892313  0.30756087  0.12374932  1
  I  I105  1  0.24777099  0.20341054  0.37357790  1
  I  I106  1  0.25322300  0.30511851  0.62603641  1
  I  I107  1  0.24122005  0.19644077  0.87637023  1
  I  I108  1  0.05584444  0.50678292  0.12398869  1
  I  I109  1  0.95645949  0.51532548  0.37549475  1
  I  I110  1  0.05196658  0.49608395  0.62652879  1
  I  I111  1  0.94739560  0.51461576  0.87442383  1
  I  I112  1  0.75488427  0.19665362  0.12536142  1
  I  I113  1  0.73717541  0.30289739  0.37446651  1
  I  I114  1  0.76300196  0.20378211  0.62476929  1
  I  I115  1  0.73934031  0.30548217  0.87457902  1
  I  I116  1  0.44722829  0.51620905  0.12334400  1
  I  I117  1  0.55337878  0.50470826  0.37277686  1
  I  I118  1  0.45519688  0.49864672  0.62506928  1
  I  I119  1  0.55187466  0.48509899  0.87332522  1
  I  I120  1  0.24356468  0.69659164  0.12260323  1
  I  I121  1  0.23214733  0.80003810  0.37391992  1
  I  I122  1  0.27017078  0.70879001  0.62512606  1
  I  I123  1  0.25660991  0.80594773  0.87467074  1
  I  I124  1  0.73079554  0.80429015  0.12423524  1
  I  I125  1  0.74755688  0.70480738  0.37252235  1
  I  I126  1  0.75548443  0.80064291  0.62421892  1
  I  I127  1  0.75401507  0.69910640  0.87429271  1
  Tl  Tl128  1  0.95489250  0.21815887  0.14282578  1
  Tl  Tl129  1  0.04243448  0.21246601  0.37471655  1
  Tl  Tl130  1  0.96303693  0.19611245  0.63086175  1
  Tl  Tl131  1  0.04215219  0.21116736  0.89036730  1
  Tl  Tl132  1  0.50469319  0.21500847  0.09702886  1
  Tl  Tl133  1  0.49804235  0.24608776  0.32537891  1
  Tl  Tl134  1  0.45484438  0.28730979  0.62364613  1
  Tl  Tl135  1  0.54365334  0.27242729  0.85543909  1
  Tl  Tl136  1  0.25306374  0.49949461  0.07417013  1
  Tl  Tl137  1  0.21567832  0.45701590  0.37790626  1
  Tl  Tl138  1  0.24982557  0.50757062  0.66291490  1
  Tl  Tl139  1  0.23594879  0.48499080  0.87108063  1
  Tl  Tl140  1  0.03687622  0.70421189  0.11263299  1
  Tl  Tl141  1  0.04311685  0.69936123  0.37868425  1
  Tl  Tl142  1  0.95976022  0.78093068  0.62337432  1
  Tl  Tl143  1  0.94937023  0.72006837  0.86498379  1
  Tl  Tl144  1  0.75824163  0.49415760  0.10845769  1
  Tl  Tl145  1  0.75331480  0.50157771  0.41254135  1
  Tl  Tl146  1  0.70855204  0.46105863  0.62022326  1
  Tl  Tl147  1  0.74942874  0.50139009  0.82896751  1
  Tl  Tl148  1  0.52121575  0.70572634  0.14171906  1
  Tl  Tl149  1  0.53655755  0.70893567  0.37353407  1
  Tl  Tl150  1  0.47912333  0.77804954  0.66389876  1
  Tl  Tl151  1  0.46202788  0.79840254  0.88830198  1
  Tl  Tl152  1  0.22789524  0.98352470  0.13695706  1
  Tl  Tl153  1  0.25595126  0.00041538  0.41191327  1
  Tl  Tl154  1  0.20968504  0.96286394  0.62220707  1
  Tl  Tl155  1  0.24720448  0.00003156  0.92600885  1
  Tl  Tl156  1  0.74616424  0.99716553  0.17032220  1
  Tl  Tl157  1  0.70508214  0.95791391  0.37497716  1
  Tl  Tl158  1  0.74335923  0.00083155  0.58400215  1
  Tl  Tl159  1  0.76064899  -0.00957794  0.88550247  1
