# generated using pymatgen
data_CaTlF3
_symmetry_space_group_name_H-M   'P 1'
_cell_length_a   12.71855431
_cell_length_b   12.71855431
_cell_length_c   17.98675200
_cell_angle_alpha   90.00000000
_cell_angle_beta   90.00000000
_cell_angle_gamma   90.00000000
_symmetry_Int_Tables_number   1
_chemical_formula_structural   CaTlF3
_chemical_formula_sum   'Ca32 Tl32 F96'
_cell_volume   2909.56620959
_cell_formula_units_Z   32
loop_
 _symmetry_equiv_pos_site_id
 _symmetry_equiv_pos_as_xyz
  1  'x, y, z'
loop_
 _atom_site_type_symbol
 _atom_site_label
 _atom_site_symmetry_multiplicity
 _atom_site_fract_x
 _atom_site_fract_y
 _atom_site_fract_z
 _atom_site_occupancy
  Ca  Ca0  1  0.00013215  0.99965042  0.00046008  1
  Ca  Ca1  1  0.99959272  0.99944680  0.25075317  1
  Ca  Ca2  1  0.99965360  -0.00000846  0.50039020  1
  Ca  Ca3  1  0.00014398  0.00017019  0.75015566  1
  Ca  Ca4  1  0.50010844  0.99968919  0.00040706  1
  Ca  Ca5  1  0.49949477  0.99950739  0.25063729  1
  Ca  Ca6  1  0.49977329  0.00002216  0.50036189  1
  Ca  Ca7  1  0.50020940  0.00006445  0.75023156  1
  Ca  Ca8  1  0.24966428  0.24945286  0.00063385  1
  Ca  Ca9  1  0.24966299  0.24999340  0.25043279  1
  Ca  Ca10  1  0.24998639  0.25018915  0.50021350  1
  Ca  Ca11  1  0.25010547  0.24971066  0.75032741  1
  Ca  Ca12  1  0.99962560  0.49991251  0.00048897  1
  Ca  Ca13  1  0.99998082  0.50020108  0.25018776  1
  Ca  Ca14  1  0.99990888  0.49983055  0.50047376  1
  Ca  Ca15  1  0.99955377  0.49966549  0.75071111  1
  Ca  Ca16  1  0.74965511  0.24948417  0.00076546  1
  Ca  Ca17  1  0.74968977  0.24983015  0.25045484  1
  Ca  Ca18  1  0.74999709  0.25023092  0.50023888  1
  Ca  Ca19  1  0.75017102  0.24979494  0.75040630  1
  Ca  Ca20  1  0.49994331  0.49982064  0.00050105  1
  Ca  Ca21  1  0.50004216  0.50006271  0.25018486  1
  Ca  Ca22  1  0.49995704  0.49993175  0.50035103  1
  Ca  Ca23  1  0.49971500  0.49956539  0.75069778  1
  Ca  Ca24  1  0.25015739  0.75001667  0.00027614  1
  Ca  Ca25  1  0.24988706  0.74967111  0.25040890  1
  Ca  Ca26  1  0.24956433  0.74960204  0.50054610  1
  Ca  Ca27  1  0.24975747  0.75009013  0.75040723  1
  Ca  Ca28  1  0.75005517  0.75021016  0.00027257  1
  Ca  Ca29  1  0.74989573  0.74979691  0.25043630  1
  Ca  Ca30  1  0.74967451  0.74958539  0.50064826  1
  Ca  Ca31  1  0.74995581  0.74994371  0.75052964  1
  F  F32  1  0.10574193  0.14447081  0.99724505  1
  F  F33  1  0.14597058  0.10416427  0.24764004  1
  F  F34  1  0.10284693  0.14638775  0.50259998  1
  F  F35  1  0.14471244  0.10482259  0.75282116  1
  F  F36  1  0.60597291  0.14419686  0.99669683  1
  F  F37  1  0.64615488  0.10389718  0.24810301  1
  F  F38  1  0.60305855  0.14622156  0.50309298  1
  F  F39  1  0.64460634  0.10480454  0.75281934  1
  F  F40  1  0.39637484  0.35390960  0.99781641  1
  F  F41  1  0.35305674  0.39616291  0.25283318  1
  F  F42  1  0.39434641  0.35505249  0.50359930  1
  F  F43  1  0.35609353  0.39425620  0.74655218  1
  F  F44  1  0.10323951  0.64596443  0.00318693  1
  F  F45  1  0.14452981  0.60470992  0.25253417  1
  F  F46  1  0.10549542  0.64467635  0.49792842  1
  F  F47  1  0.14594948  0.60446198  0.74710009  1
  F  F48  1  0.89673123  0.35351877  0.99852424  1
  F  F49  1  0.85310714  0.39600993  0.25271684  1
  F  F50  1  0.89450563  0.35487449  0.50311315  1
  F  F51  1  0.85559863  0.39472916  0.74755464  1
  F  F52  1  0.60317309  0.64610893  0.00304545  1
  F  F53  1  0.64450295  0.60477509  0.25289558  1
  F  F54  1  0.60597946  0.64434317  0.49641315  1
  F  F55  1  0.64663551  0.60373679  0.74878586  1
  F  F56  1  0.39457159  0.85476358  0.00306510  1
  F  F57  1  0.35546774  0.89452038  0.24789397  1
  F  F58  1  0.39568861  0.85460190  0.49635304  1
  F  F59  1  0.35310567  0.89633708  0.75329813  1
  F  F60  1  0.89446081  0.85493168  0.00323218  1
  F  F61  1  0.85537824  0.89471596  0.24752417  1
  F  F62  1  0.89637539  0.85384135  0.49814785  1
  F  F63  1  0.85320944  0.89611170  0.75270678  1
  F  F64  1  0.86594934  0.11556730  0.97572926  1
  F  F65  1  0.89850396  0.14841404  0.26091016  1
  F  F66  1  0.85100065  0.10137365  0.49025381  1
  F  F67  1  0.88495140  0.13464205  0.77470207  1
  F  F68  1  0.36588952  0.11558197  0.97589069  1
  F  F69  1  0.39854024  0.14866256  0.26043376  1
  F  F70  1  0.35119006  0.10156136  0.48983507  1
  F  F71  1  0.38502763  0.13459458  0.77466507  1
  F  F72  1  0.14893811  0.39885560  0.00977707  1
  F  F73  1  0.10099428  0.35138327  0.23977376  1
  F  F74  1  0.13470622  0.38466796  0.52498306  1
  F  F75  1  0.11610340  0.36598150  0.72571799  1
  F  F76  1  0.85111823  0.60142068  0.98997277  1
  F  F77  1  0.88473848  0.63473618  0.27479269  1
  F  F78  1  0.86545490  0.61533936  0.47574633  1
  F  F79  1  0.89877812  0.64878641  0.76117617  1
  F  F80  1  0.64859429  0.39830821  0.01065139  1
  F  F81  1  0.60102562  0.35118462  0.23968635  1
  F  F82  1  0.63468120  0.38465031  0.52485167  1
  F  F83  1  0.61576182  0.36550384  0.72607564  1
  F  F84  1  0.35111471  0.60109393  0.99009254  1
  F  F85  1  0.38462871  0.63446978  0.27482753  1
  F  F86  1  0.36561222  0.61563967  0.47597520  1
  F  F87  1  0.39886183  0.64883754  0.75997254  1
  F  F88  1  0.13495343  0.88460106  0.02484900  1
  F  F89  1  0.11556298  0.86548294  0.22569534  1
  F  F90  1  0.14853073  0.89872370  0.51013759  1
  F  F91  1  0.10118730  0.85145938  0.73983709  1
  F  F92  1  0.63487860  0.88468392  0.02495022  1
  F  F93  1  0.61533915  0.86528846  0.22613007  1
  F  F94  1  0.64839899  0.89843124  0.51054594  1
  F  F95  1  0.60094379  0.85094802  0.73979530  1
  F  F96  1  0.98061571  0.02384130  0.12524721  1
  F  F97  1  0.02238164  0.98188736  0.37518283  1
  F  F98  1  0.97719326  0.01836615  0.62563134  1
  F  F99  1  0.02013601  0.97581344  0.87559203  1
  F  F100  1  0.48086040  0.02396205  0.12517421  1
  F  F101  1  0.52272186  0.98275263  0.37513155  1
  F  F102  1  0.47679372  0.01726651  0.62568075  1
  F  F103  1  0.52034431  0.97516361  0.87555583  1
  F  F104  1  0.27252363  0.23297462  0.12523237  1
  F  F105  1  0.22707917  0.26857261  0.37563898  1
  F  F106  1  0.26973608  0.22516166  0.62563954  1
  F  F107  1  0.23261862  0.27416741  0.87499438  1
  F  F108  1  0.97698921  0.51836059  0.12571187  1
  F  F109  1  0.02009218  0.47591010  0.37563835  1
  F  F110  1  0.98056372  0.52411706  0.62523872  1
  F  F111  1  0.02263265  0.48260351  0.87520246  1
  F  F112  1  0.77239636  0.23125650  0.12533015  1
  F  F113  1  0.72697760  0.26815211  0.37563844  1
  F  F114  1  0.77017091  0.22575873  0.62569608  1
  F  F115  1  0.73285922  0.27425570  0.87511603  1
  F  F116  1  0.47699476  0.51824554  0.12571166  1
  F  F117  1  0.51968061  0.47511500  0.37557398  1
  F  F118  1  0.48267967  0.52459743  0.62520911  1
  F  F119  1  0.52253182  0.48194452  0.87517424  1
  F  F120  1  0.27026732  0.72578573  0.12574859  1
  F  F121  1  0.22973916  0.77344942  0.37500843  1
  F  F122  1  0.27304979  0.73469065  0.62515752  1
  F  F123  1  0.22707409  0.76779667  0.87563630  1
  F  F124  1  0.76991989  0.72566306  0.12576397  1
  F  F125  1  0.73087601  0.77444116  0.37508421  1
  F  F126  1  0.77234538  0.73159991  0.62530608  1
  F  F127  1  0.72715774  0.76891000  0.87568507  1
  Tl  Tl128  1  0.98928327  0.23894328  0.12953196  1
  Tl  Tl129  1  0.01033413  0.26019760  0.37206208  1
  Tl  Tl130  1  0.00267349  0.25323433  0.61500864  1
  Tl  Tl131  1  0.99463316  0.24546924  0.88629817  1
  Tl  Tl132  1  0.48903753  0.23908988  0.12935653  1
  Tl  Tl133  1  0.51011987  0.25978813  0.37205599  1
  Tl  Tl134  1  0.50266864  0.25354267  0.61525197  1
  Tl  Tl135  1  0.49510411  0.24599449  0.88604803  1
  Tl  Tl136  1  0.26032091  0.50997760  0.12217421  1
  Tl  Tl137  1  0.25304373  0.50356904  0.36502877  1
  Tl  Tl138  1  0.24534503  0.49553867  0.63624802  1
  Tl  Tl139  1  0.23885672  0.48884159  0.87993578  1
  Tl  Tl140  1  0.00269517  0.75311863  0.11528934  1
  Tl  Tl141  1  0.99598591  0.74592933  0.38608654  1
  Tl  Tl142  1  0.98940338  0.73916956  0.62917175  1
  Tl  Tl143  1  0.01014859  0.76003833  0.87214050  1
  Tl  Tl144  1  0.76021740  0.51022471  0.12200470  1
  Tl  Tl145  1  0.75261032  0.50340754  0.36519244  1
  Tl  Tl146  1  0.74539070  0.49601101  0.63596311  1
  Tl  Tl147  1  0.73914900  0.48925709  0.87868917  1
  Tl  Tl148  1  0.50277414  0.75327034  0.11524150  1
  Tl  Tl149  1  0.49635583  0.74638590  0.38576555  1
  Tl  Tl150  1  0.48925042  0.73947735  0.62929741  1
  Tl  Tl151  1  0.51036293  0.76000601  0.87199379  1
  Tl  Tl152  1  0.24575349  0.99564994  0.13623528  1
  Tl  Tl153  1  0.23956712  0.98863966  0.37978156  1
  Tl  Tl154  1  0.26021787  0.00969174  0.62235189  1
  Tl  Tl155  1  0.25259032  0.00323805  0.86519551  1
  Tl  Tl156  1  0.74605924  0.99590584  0.13603089  1
  Tl  Tl157  1  0.73917805  0.98937358  0.37889957  1
  Tl  Tl158  1  0.76039884  0.01018091  0.62198565  1
  Tl  Tl159  1  0.75268732  0.00334115  0.86521570  1
