# generated using pymatgen
data_CaTlCl3
_symmetry_space_group_name_H-M   'P 1'
_cell_length_a   15.24897128
_cell_length_b   15.24897128
_cell_length_c   21.56530300
_cell_angle_alpha   90.00000000
_cell_angle_beta   90.00000000
_cell_angle_gamma   90.00000000
_symmetry_Int_Tables_number   1
_chemical_formula_structural   CaTlCl3
_chemical_formula_sum   'Ca32 Tl32 Cl96'
_cell_volume   5014.60417134
_cell_formula_units_Z   32
loop_
 _symmetry_equiv_pos_site_id
 _symmetry_equiv_pos_as_xyz
  1  'x, y, z'
loop_
 _atom_site_type_symbol
 _atom_site_label
 _atom_site_symmetry_multiplicity
 _atom_site_fract_x
 _atom_site_fract_y
 _atom_site_fract_z
 _atom_site_occupancy
  Ca  Ca0  1  0.99439493  0.00066576  0.00214975  1
  Ca  Ca1  1  0.00772840  0.99547304  0.24967535  1
  Ca  Ca2  1  0.00197464  -0.00277178  0.50250438  1
  Ca  Ca3  1  0.99506237  0.00186636  0.74866375  1
  Ca  Ca4  1  0.49777427  0.00265522  -0.00040199  1
  Ca  Ca5  1  0.50032768  -0.00647665  0.24816526  1
  Ca  Ca6  1  0.49865017  -0.00473153  0.49756007  1
  Ca  Ca7  1  0.49571289  0.00480529  0.74926687  1
  Ca  Ca8  1  0.24665295  0.25623517  0.00202872  1
  Ca  Ca9  1  0.25283090  0.24176650  0.24963918  1
  Ca  Ca10  1  0.25066641  0.24660492  0.50031062  1
  Ca  Ca11  1  0.24744221  0.25653972  0.74750662  1
  Ca  Ca12  1  0.99533747  0.50370505  -0.00028417  1
  Ca  Ca13  1  0.00211630  0.49185585  0.24888310  1
  Ca  Ca14  1  0.00058324  0.49526442  0.49850971  1
  Ca  Ca15  1  0.99479864  0.50387595  0.74957445  1
  Ca  Ca16  1  0.74637546  0.25005913  0.99988544  1
  Ca  Ca17  1  0.75546472  0.24838960  0.24802074  1
  Ca  Ca18  1  0.75399168  0.25026277  0.49762378  1
  Ca  Ca19  1  0.74407253  0.25263785  0.74926662  1
  Ca  Ca20  1  0.49324349  0.50151148  0.00228270  1
  Ca  Ca21  1  0.50750548  0.49606818  0.24972427  1
  Ca  Ca22  1  0.50246564  0.49849785  0.50061748  1
  Ca  Ca23  1  0.49303296  0.50085092  0.74732114  1
  Ca  Ca24  1  0.24469727  0.75249195  -0.00044473  1
  Ca  Ca25  1  0.25733176  0.74675183  0.24886143  1
  Ca  Ca26  1  0.25381781  0.74819347  0.49864616  1
  Ca  Ca27  1  0.24464452  0.75294325  0.74941253  1
  Ca  Ca28  1  0.74746026  0.75519663  0.00254605  1
  Ca  Ca29  1  0.75319586  0.74145148  0.24995631  1
  Ca  Ca30  1  0.75158588  0.74737949  0.50236248  1
  Ca  Ca31  1  0.74658893  0.75420713  0.74878243  1
  Cl  Cl32  1  0.14605449  0.10371699  0.98163258  1
  Cl  Cl33  1  0.12055253  0.12787682  0.28301954  1
  Cl  Cl34  1  0.11106742  0.13718432  0.47044446  1
  Cl  Cl35  1  0.14572236  0.10459928  0.76942920  1
  Cl  Cl36  1  0.63934972  0.10905078  0.97391725  1
  Cl  Cl37  1  0.60854005  0.14034512  0.26054160  1
  Cl  Cl38  1  0.60234892  0.14688784  0.49041368  1
  Cl  Cl39  1  0.64789485  0.10070046  0.75738123  1
  Cl  Cl40  1  0.33808901  0.41087141  0.01529184  1
  Cl  Cl41  1  0.39375962  0.35525388  0.22490958  1
  Cl  Cl42  1  0.39429086  0.35490929  0.52931567  1
  Cl  Cl43  1  0.33857876  0.41060024  0.73293721  1
  Cl  Cl44  1  0.13495218  0.61324873  0.97163615  1
  Cl  Cl45  1  0.10893835  0.64030358  0.25789589  1
  Cl  Cl46  1  0.09983162  0.64910317  0.49031154  1
  Cl  Cl47  1  0.13349389  0.61461441  0.77636913  1
  Cl  Cl48  1  0.84732204  0.39911301  0.02016232  1
  Cl  Cl49  1  0.90917893  0.33946617  0.23581066  1
  Cl  Cl50  1  0.91021212  0.34015867  0.50789372  1
  Cl  Cl51  1  0.84883189  0.39924009  0.73001831  1
  Cl  Cl52  1  0.64473383  0.60330521  0.98239193  1
  Cl  Cl53  1  0.62158418  0.62804069  0.28332776  1
  Cl  Cl54  1  0.61144767  0.63846923  0.47061725  1
  Cl  Cl55  1  0.64390377  0.60352185  0.76955583  1
  Cl  Cl56  1  0.34976206  0.90018876  0.01961011  1
  Cl  Cl57  1  0.41009384  0.83923319  0.23571610  1
  Cl  Cl58  1  0.40900036  0.83879166  0.50822715  1
  Cl  Cl59  1  0.34970544  0.89889894  0.72992675  1
  Cl  Cl60  1  0.83765057  0.91133529  0.01738346  1
  Cl  Cl61  1  0.89102214  0.85787354  0.22686505  1
  Cl  Cl62  1  0.89143323  0.85762490  0.52717374  1
  Cl  Cl63  1  0.84030258  0.90862984  0.73702870  1
  Cl  Cl64  1  0.89749854  0.15298989  0.98173475  1
  Cl  Cl65  1  0.86176104  0.10119679  0.27300478  1
  Cl  Cl66  1  0.85997301  0.10418022  0.47256164  1
  Cl  Cl67  1  0.89661298  0.15428369  0.76592854  1
  Cl  Cl68  1  0.39758297  0.15528933  0.01739709  1
  Cl  Cl69  1  0.36351258  0.10464443  0.21931742  1
  Cl  Cl70  1  0.35209818  0.09845492  0.52036603  1
  Cl  Cl71  1  0.38889894  0.14823434  0.72241806  1
  Cl  Cl72  1  0.09358054  0.35224913  0.98258779  1
  Cl  Cl73  1  0.15331199  0.39237519  0.26588801  1
  Cl  Cl74  1  0.15442731  0.39893828  0.48337483  1
  Cl  Cl75  1  0.09466966  0.35370674  0.76610750  1
  Cl  Cl76  1  0.89013885  0.64885111  0.02471011  1
  Cl  Cl77  1  0.86374899  0.60449370  0.22095004  1
  Cl  Cl78  1  0.84965077  0.59587295  0.51942238  1
  Cl  Cl79  1  0.88957207  0.64934408  0.72516389  1
  Cl  Cl80  1  0.59386899  0.35068151  0.01774133  1
  Cl  Cl81  1  0.64427084  0.38519844  0.21900152  1
  Cl  Cl82  1  0.65185770  0.39818978  0.51927415  1
  Cl  Cl83  1  0.60134837  0.36001648  0.72155435  1
  Cl  Cl84  1  0.39479689  0.65224880  0.97997583  1
  Cl  Cl85  1  0.35685473  0.59545523  0.26602818  1
  Cl  Cl86  1  0.35010284  0.59433355  0.48357090  1
  Cl  Cl87  1  0.39343059  0.65142204  0.76873384  1
  Cl  Cl88  1  0.09985475  0.85770069  0.02469988  1
  Cl  Cl89  1  0.14578956  0.88595736  0.22165544  1
  Cl  Cl90  1  0.15341547  0.89916877  0.51936005  1
  Cl  Cl91  1  0.09960384  0.85869676  0.72492747  1
  Cl  Cl92  1  0.59468590  0.85135896  0.98248450  1
  Cl  Cl93  1  0.64759922  0.88765672  0.27324740  1
  Cl  Cl94  1  0.64470020  0.88934624  0.47243796  1
  Cl  Cl95  1  0.59391854  0.85228257  0.76537531  1
  Cl  Cl96  1  0.00459636  0.04708554  0.12628551  1
  Cl  Cl97  1  0.00815359  0.95002822  0.37605012  1
  Cl  Cl98  1  0.00411686  0.04884719  0.62490778  1
  Cl  Cl99  1  0.98508053  0.97123554  0.87541967  1
  Cl  Cl100  1  0.54496431  0.99519943  0.12344319  1
  Cl  Cl101  1  0.45995745  0.00086231  0.37292261  1
  Cl  Cl102  1  0.53459133  0.99091502  0.62310165  1
  Cl  Cl103  1  0.45939934  0.02218860  0.87395812  1
  Cl  Cl104  1  0.20215003  0.24161285  0.12552968  1
  Cl  Cl105  1  0.30025005  0.24850946  0.37539619  1
  Cl  Cl106  1  0.20043754  0.24366033  0.62384228  1
  Cl  Cl107  1  0.27782233  0.26629353  0.87480208  1
  Cl  Cl108  1  0.04280585  0.49656848  0.12304213  1
  Cl  Cl109  1  0.96372973  0.50977040  0.37351866  1
  Cl  Cl110  1  0.03817153  0.50151830  0.62473281  1
  Cl  Cl111  1  0.95222855  0.51939404  0.87472899  1
  Cl  Cl112  1  0.75432540  0.20262437  0.12351542  1
  Cl  Cl113  1  0.74802874  0.28850571  0.37279794  1
  Cl  Cl114  1  0.75789515  0.21397792  0.62309808  1
  Cl  Cl115  1  0.72644460  0.28850948  0.87416494  1
  Cl  Cl116  1  0.50689790  0.54689424  0.12554024  1
  Cl  Cl117  1  0.50116295  0.44881444  0.37557024  1
  Cl  Cl118  1  0.50561971  0.54896815  0.62407764  1
  Cl  Cl119  1  0.48658325  0.46839472  0.87483198  1
  Cl  Cl120  1  0.25525321  0.70597048  0.12292426  1
  Cl  Cl121  1  0.23997523  0.78483768  0.37356858  1
  Cl  Cl122  1  0.24814236  0.70939354  0.62480470  1
  Cl  Cl123  1  0.22853828  0.79518810  0.87454505  1
  Cl  Cl124  1  0.70132428  0.74575965  0.12672987  1
  Cl  Cl125  1  0.79922904  0.74182758  0.37606666  1
  Cl  Cl126  1  0.70004472  0.74577325  0.62484212  1
  Cl  Cl127  1  0.77562500  0.76482943  0.87568319  1
  Tl  Tl128  1  -0.01234101  0.26265903  0.10390407  1
  Tl  Tl129  1  0.97097687  0.23082031  0.37559938  1
  Tl  Tl130  1  0.98411805  0.26307983  0.64421098  1
  Tl  Tl131  1  0.02975856  0.22002720  0.87406422  1
  Tl  Tl132  1  0.51733767  0.23080410  0.14036162  1
  Tl  Tl133  1  0.51240781  0.23682456  0.37326165  1
  Tl  Tl134  1  0.51483461  0.23269773  0.61682146  1
  Tl  Tl135  1  0.51004574  0.23901944  0.90164978  1
  Tl  Tl136  1  0.25628311  0.49288380  0.14930371  1
  Tl  Tl137  1  0.28277840  0.46625254  0.37233643  1
  Tl  Tl138  1  0.25364628  0.49467753  0.60166481  1
  Tl  Tl139  1  0.27363959  0.48323029  0.87400382  1
  Tl  Tl140  1  0.01741633  0.72858610  0.13754524  1
  Tl  Tl141  1  0.01615720  0.73214634  0.37152655  1
  Tl  Tl142  1  0.01869373  0.72936622  0.61828041  1
  Tl  Tl143  1  0.02439458  0.72372664  0.87525880  1
  Tl  Tl144  1  0.73221106  0.52513380  0.11548148  1
  Tl  Tl145  1  0.74387263  0.51814946  0.39271565  1
  Tl  Tl146  1  0.72546399  0.51914362  0.63674795  1
  Tl  Tl147  1  0.74830420  0.49312281  0.87601245  1
  Tl  Tl148  1  0.48432321  0.76086569  0.10392008  1
  Tl  Tl149  1  0.51764654  0.77804286  0.37558544  1
  Tl  Tl150  1  0.48576249  0.76551338  0.64372562  1
  Tl  Tl151  1  0.52942218  0.72037974  0.87414571  1
  Tl  Tl152  1  0.22385594  0.01644910  0.11541688  1
  Tl  Tl153  1  0.22858947  0.00382099  0.39094015  1
  Tl  Tl154  1  0.23009602  0.02389898  0.63631950  1
  Tl  Tl155  1  0.25478161  0.99862523  0.87557041  1
  Tl  Tl156  1  0.75608187  -0.00876514  0.14546830  1
  Tl  Tl157  1  0.78788359  0.96126654  0.37397471  1
  Tl  Tl158  1  0.74169412  0.00702775  0.62857284  1
  Tl  Tl159  1  0.77182044  0.97872723  0.87653870  1
