# generated using pymatgen
data_TlCdI3
_symmetry_space_group_name_H-M   'P 1'
_cell_length_a   16.82932665
_cell_length_b   16.82932665
_cell_length_c   23.80026300
_cell_angle_alpha   90.00000000
_cell_angle_beta   90.00000000
_cell_angle_gamma   90.00000000
_symmetry_Int_Tables_number   1
_chemical_formula_structural   TlCdI3
_chemical_formula_sum   'Tl32 Cd32 I96'
_cell_volume   6740.85889660
_cell_formula_units_Z   32
loop_
 _symmetry_equiv_pos_site_id
 _symmetry_equiv_pos_as_xyz
  1  'x, y, z'
loop_
 _atom_site_type_symbol
 _atom_site_label
 _atom_site_symmetry_multiplicity
 _atom_site_fract_x
 _atom_site_fract_y
 _atom_site_fract_z
 _atom_site_occupancy
  Cd  Cd0  1  0.96891854  0.00930238  0.96191131  1
  Cd  Cd1  1  0.02672894  0.06658851  0.25614195  1
  Cd  Cd2  1  0.01257589  0.98812157  0.51253854  1
  Cd  Cd3  1  0.01886451  0.97233137  0.74426578  1
  Cd  Cd4  1  0.45758781  0.02576070  0.02062614  1
  Cd  Cd5  1  0.50617543  0.94609885  0.23260770  1
  Cd  Cd6  1  0.50222588  0.93073122  0.49654181  1
  Cd  Cd7  1  0.46690066  0.02824171  0.77959589  1
  Cd  Cd8  1  0.28266657  0.26961711  0.03612371  1
  Cd  Cd9  1  0.27071687  0.26980086  0.24868901  1
  Cd  Cd10  1  0.29596409  0.29225353  0.47054222  1
  Cd  Cd11  1  0.28150584  0.25837623  0.73230805  1
  Cd  Cd12  1  0.97930124  0.52292927  0.97282448  1
  Cd  Cd13  1  0.00555657  0.43987365  0.23314277  1
  Cd  Cd14  1  0.08048384  0.48131786  0.50608436  1
  Cd  Cd15  1  0.04345780  0.47157375  0.70570453  1
  Cd  Cd16  1  0.79137854  0.26076855  0.94649549  1
  Cd  Cd17  1  0.77562124  0.27962699  0.25911663  1
  Cd  Cd18  1  0.77672728  0.24640346  0.52789732  1
  Cd  Cd19  1  0.73487675  0.21549479  0.72961068  1
  Cd  Cd20  1  0.45690194  0.50881984  0.04866259  1
  Cd  Cd21  1  0.51187772  0.48135009  0.26628559  1
  Cd  Cd22  1  0.51495664  0.45941647  0.45704286  1
  Cd  Cd23  1  0.53452810  0.47058962  0.75352201  1
  Cd  Cd24  1  0.25251980  0.81670303  0.99804736  1
  Cd  Cd25  1  0.27280374  0.79237652  0.23107957  1
  Cd  Cd26  1  0.27708259  0.73115080  0.50555456  1
  Cd  Cd27  1  0.28160610  0.80695341  0.72556198  1
  Cd  Cd28  1  0.76263780  0.80864499  0.02122931  1
  Cd  Cd29  1  0.74935767  0.77552506  0.21803475  1
  Cd  Cd30  1  0.78588242  0.80351390  0.48818199  1
  Cd  Cd31  1  0.73879530  0.73712905  0.76161527  1
  I  I32  1  0.06586313  0.14705483  0.95995584  1
  I  I33  1  0.18395352  0.11333144  0.29188411  1
  I  I34  1  0.13563507  0.08548642  0.47079015  1
  I  I35  1  0.06324116  0.12630961  0.78105729  1
  I  I36  1  0.56583338  0.14385916  0.04748663  1
  I  I37  1  0.61110466  0.07055597  0.24664181  1
  I  I38  1  0.66858542  0.11934345  0.52096243  1
  I  I39  1  0.58664812  0.12193667  0.71826458  1
  I  I40  1  0.43165927  0.34432809  0.01471365  1
  I  I41  1  0.35887324  0.41842130  0.20709183  1
  I  I42  1  0.37906748  0.41448810  0.52868765  1
  I  I43  1  0.43773677  0.32199758  0.70910626  1
  I  I44  1  0.07124095  0.61755832  0.04588415  1
  I  I45  1  0.08715240  0.58890937  0.23095336  1
  I  I46  1  0.17080112  0.59874440  0.56052955  1
  I  I47  1  0.06470274  0.63559530  0.71877566  1
  I  I48  1  0.93501224  0.35016718  0.96115347  1
  I  I49  1  0.85128397  0.43048548  0.28494996  1
  I  I50  1  0.81259591  0.38933042  0.47040631  1
  I  I51  1  0.92735490  0.37435674  0.75831398  1
  I  I52  1  0.55119811  0.61433131  0.98283522  1
  I  I53  1  0.64557244  0.58340345  0.29187945  1
  I  I54  1  0.63040646  0.57306117  0.48500260  1
  I  I55  1  0.59144946  0.64680721  0.78929962  1
  I  I56  1  0.40907236  0.87582597  0.96778438  1
  I  I57  1  0.35874367  0.91527342  0.29026702  1
  I  I58  1  0.33890637  0.88867981  0.46988634  1
  I  I59  1  0.43952473  0.86157835  0.76166968  1
  I  I60  1  0.91454404  0.87469306  0.03665225  1
  I  I61  1  0.82323793  0.92286255  0.20679656  1
  I  I62  1  0.84417937  0.95751212  0.51314555  1
  I  I63  1  0.92433764  0.84220414  0.71359617  1
  I  I64  1  0.82744314  0.11277253  0.00567204  1
  I  I65  1  0.94153924  0.20940664  0.23345613  1
  I  I66  1  0.93083844  0.18074417  0.51765695  1
  I  I67  1  0.84080696  0.10003658  0.68483194  1
  I  I68  1  0.30169763  0.10489258  0.01063263  1
  I  I69  1  0.39678939  0.16269553  0.21895829  1
  I  I70  1  0.37299783  0.14671187  0.48566620  1
  I  I71  1  0.32102617  0.07726369  0.73427403  1
  I  I72  1  0.16787267  0.36946953  0.98780821  1
  I  I73  1  0.12273838  0.35244600  0.29342877  1
  I  I74  1  0.13210766  0.32247476  0.47982716  1
  I  I75  1  0.19654434  0.42233002  0.74257599  1
  I  I76  1  0.82900657  0.58699910  0.98773055  1
  I  I77  1  0.87203536  0.67264503  0.25098151  1
  I  I78  1  0.88127926  0.67185097  0.50738954  1
  I  I79  1  0.84271631  0.62273812  0.80774249  1
  I  I80  1  0.67355793  0.36183985  0.98485821  1
  I  I81  1  0.58923785  0.33235707  0.28318996  1
  I  I82  1  0.57669213  0.30734203  0.45511345  1
  I  I83  1  0.66761212  0.37631667  0.79207689  1
  I  I84  1  0.31281163  0.58687812  0.04710656  1
  I  I85  1  0.35716070  0.65485329  0.22305338  1
  I  I86  1  0.41492705  0.66077242  0.54789406  1
  I  I87  1  0.32503761  0.65148575  0.75451692  1
  I  I88  1  0.13102140  0.92415806  0.96346831  1
  I  I89  1  0.11597877  0.82928065  0.26278746  1
  I  I90  1  0.07472691  0.83692249  0.47867865  1
  I  I91  1  0.16078252  0.88241361  0.79059089  1
  I  I92  1  0.63627786  0.91564036  0.04917888  1
  I  I93  1  0.57979261  0.79310078  0.23926587  1
  I  I94  1  0.62335246  0.81339970  0.53130129  1
  I  I95  1  0.68483240  0.89470044  0.76474200  1
  I  I96  1  0.04284932  0.01606034  0.14394218  1
  I  I97  1  0.96904688  0.98343865  0.34862119  1
  I  I98  1  0.06272912  0.01916872  0.62771600  1
  I  I99  1  0.91478275  0.94623355  0.85997626  1
  I  I100  1  0.42421450  0.93888243  0.12705207  1
  I  I101  1  0.55718905  0.97961893  0.39325953  1
  I  I102  1  0.48006275  0.99604613  0.60236962  1
  I  I103  1  0.51577228  0.06874965  0.88831213  1
  I  I104  1  0.18938490  0.25022935  0.13696218  1
  I  I105  1  0.34311519  0.31979277  0.35714346  1
  I  I106  1  0.21129085  0.23113971  0.62775258  1
  I  I107  1  0.28234102  0.25751277  0.85277764  1
  I  I108  1  0.96936145  0.40856418  0.12032651  1
  I  I109  1  0.01367524  0.51773253  0.40199391  1
  I  I110  1  0.97490366  0.44027647  0.59688368  1
  I  I111  1  0.06184292  0.52794986  0.87092926  1
  I  I112  1  0.73543483  0.27175234  0.14535500  1
  I  I113  1  0.76180076  0.19295178  0.35793944  1
  I  I114  1  0.71684404  0.31707067  0.63253698  1
  I  I115  1  0.79196203  0.17900091  0.84250311  1
  I  I116  1  0.56198165  0.50597877  0.14234221  1
  I  I117  1  0.43260099  0.54093422  0.36856606  1
  I  I118  1  0.55004847  0.51768350  0.64294108  1
  I  I119  1  0.44515391  0.47876502  0.85314818  1
  I  I120  1  0.21035347  0.81456146  0.11235631  1
  I  I121  1  0.22314520  0.69406619  0.39518765  1
  I  I122  1  0.22427475  0.82336113  0.61512554  1
  I  I123  1  0.23348972  0.71285513  0.90762095  1
  I  I124  1  0.72488989  0.69662984  0.10912389  1
  I  I125  1  0.75004936  0.78493098  0.37278769  1
  I  I126  1  0.74742588  0.69412966  0.64645979  1
  I  I127  1  0.71066531  0.77563818  0.91317938  1
  Tl  Tl128  1  0.98639845  0.20332575  0.09035966  1
  Tl  Tl129  1  0.94232380  0.28898710  0.39184425  1
  Tl  Tl130  1  0.00397262  0.21985848  0.65248396  1
  Tl  Tl131  1  0.07323007  0.31654016  0.85544460  1
  Tl  Tl132  1  0.52350778  0.29027799  0.15049484  1
  Tl  Tl133  1  0.49526278  0.17708818  0.35805277  1
  Tl  Tl134  1  0.51476518  0.21814618  0.57928299  1
  Tl  Tl135  1  0.48710914  0.27848699  0.84780245  1
  Tl  Tl136  1  0.17248417  0.47854541  0.11698967  1
  Tl  Tl137  1  0.24338605  0.52363542  0.31153935  1
  Tl  Tl138  1  0.33371947  0.52531590  0.64332289  1
  Tl  Tl139  1  0.25671806  0.51480933  0.91133715  1
  Tl  Tl140  1  0.00420102  0.75176682  0.15200039  1
  Tl  Tl141  1  0.01775350  0.71525510  0.36677662  1
  Tl  Tl142  1  0.02221081  0.74518945  0.60449105  1
  Tl  Tl143  1  0.00740777  0.74205759  0.83265740  1
  Tl  Tl144  1  0.76776255  0.46871429  0.09681733  1
  Tl  Tl145  1  0.79186872  0.56693445  0.39584951  1
  Tl  Tl146  1  0.78189951  0.50235281  0.69540301  1
  Tl  Tl147  1  0.69075315  0.53398526  0.89316191  1
  Tl  Tl148  1  0.52470260  0.75528832  0.09232294  1
  Tl  Tl149  1  0.56099854  0.70770012  0.38861976  1
  Tl  Tl150  1  0.54596709  0.72113835  0.65593506  1
  Tl  Tl151  1  0.43547903  0.70506606  0.87224917  1
  Tl  Tl152  1  0.24463196  0.04335233  0.16171003  1
  Tl  Tl153  1  0.17929582  0.94152227  0.37873726  1
  Tl  Tl154  1  0.26535295  0.03564648  0.58189671  1
  Tl  Tl155  1  0.21150588  0.06220976  0.87087516  1
  Tl  Tl156  1  0.72167919  0.06172870  0.12594062  1
  Tl  Tl157  1  0.76227557  0.98811155  0.33870514  1
  Tl  Tl158  1  0.69164634  0.98414810  0.62900577  1
  Tl  Tl159  1  0.71418885  0.97585349  0.89358717  1
