# generated using pymatgen
data_TlCdBr3
_symmetry_space_group_name_H-M   'P 1'
_cell_length_a   15.65305028
_cell_length_b   15.65305028
_cell_length_c   22.13675700
_cell_angle_alpha   90.00000000
_cell_angle_beta   90.00000000
_cell_angle_gamma   90.00000000
_symmetry_Int_Tables_number   1
_chemical_formula_structural   TlCdBr3
_chemical_formula_sum   'Tl32 Cd32 Br96'
_cell_volume   5423.90355255
_cell_formula_units_Z   32
loop_
 _symmetry_equiv_pos_site_id
 _symmetry_equiv_pos_as_xyz
  1  'x, y, z'
loop_
 _atom_site_type_symbol
 _atom_site_label
 _atom_site_symmetry_multiplicity
 _atom_site_fract_x
 _atom_site_fract_y
 _atom_site_fract_z
 _atom_site_occupancy
  Br  Br0  1  0.97626059  0.20837139  0.98647052  1
  Br  Br1  1  0.99166761  0.32993624  0.26400770  1
  Br  Br2  1  0.99344158  0.20815051  0.49527167  1
  Br  Br3  1  0.00100061  0.29745849  0.75494504  1
  Br  Br4  1  0.41254817  0.21118050  0.00891082  1
  Br  Br5  1  0.51803585  0.28869083  0.24194017  1
  Br  Br6  1  0.44198446  0.23730307  0.52012858  1
  Br  Br7  1  0.55082185  0.24468767  0.72933545  1
  Br  Br8  1  0.35175026  0.46257561  0.97784341  1
  Br  Br9  1  0.24678310  0.51801710  0.27594499  1
  Br  Br10  1  0.29157813  0.48374407  0.50998354  1
  Br  Br11  1  0.20820920  0.51753795  0.74973429  1
  Br  Br12  1  0.91245423  0.71505253  0.97820549  1
  Br  Br13  1  0.06197728  0.74114955  0.26128513  1
  Br  Br14  1  0.94705808  0.76541615  0.50071767  1
  Br  Br15  1  0.05237306  0.75280300  0.74084904  1
  Br  Br16  1  0.77095461  0.48780466  0.01775737  1
  Br  Br17  1  0.71914973  0.47312197  0.24655990  1
  Br  Br18  1  0.76327720  0.57839047  0.50974806  1
  Br  Br19  1  0.75305573  0.43538373  0.73351889  1
  Br  Br20  1  0.48535025  0.71303082  0.99587056  1
  Br  Br21  1  0.49191259  0.75408458  0.25744918  1
  Br  Br22  1  0.51417108  0.72886224  0.50929703  1
  Br  Br23  1  0.50252944  0.82219912  0.74610809  1
  Br  Br24  1  0.23748498  0.01702064  0.02653510  1
  Br  Br25  1  0.22356178  0.95079197  0.24388676  1
  Br  Br26  1  0.23378155  0.04956522  0.50033913  1
  Br  Br27  1  0.25406503  0.93909216  0.74024371  1
  Br  Br28  1  0.82382233  0.94755631  0.99403660  1
  Br  Br29  1  0.71063022  0.03111454  0.25660544  1
  Br  Br30  1  0.79172304  0.00351523  0.47326546  1
  Br  Br31  1  0.70244010  0.00710668  0.75315902  1
  Br  Br32  1  0.14619046  0.16828327  0.16344733  1
  Br  Br33  1  0.15536068  0.16425955  0.35883068  1
  Br  Br34  1  0.09176894  0.10867414  0.64973863  1
  Br  Br35  1  0.16630949  0.11567940  0.86901651  1
  Br  Br36  1  0.64964465  0.11076262  0.08848200  1
  Br  Br37  1  0.61659983  0.16315561  0.39603489  1
  Br  Br38  1  0.62552525  0.09642034  0.58790576  1
  Br  Br39  1  0.67593812  0.12245064  0.90220552  1
  Br  Br40  1  0.30218281  0.35381381  0.13767460  1
  Br  Br41  1  0.35713948  0.34687834  0.37506308  1
  Br  Br42  1  0.40487897  0.42159335  0.65357275  1
  Br  Br43  1  0.34907471  0.35748036  0.82594096  1
  Br  Br44  1  0.16089687  0.60364231  0.09375206  1
  Br  Br45  1  0.13924749  0.65765272  0.42820031  1
  Br  Br46  1  0.10675699  0.61101031  0.59872391  1
  Br  Br47  1  0.18247192  0.62870417  0.90300764  1
  Br  Br48  1  0.80359373  0.30232155  0.14099419  1
  Br  Br49  1  0.83421969  0.36099756  0.39976514  1
  Br  Br50  1  0.90041833  0.40009770  0.59467832  1
  Br  Br51  1  0.83838706  0.35783200  0.88634768  1
  Br  Br52  1  0.64684269  0.63825209  0.12644548  1
  Br  Br53  1  0.65968527  0.64603392  0.36208279  1
  Br  Br54  1  0.60363739  0.61025356  0.65720418  1
  Br  Br55  1  0.68542301  0.61805929  0.86302946  1
  Br  Br56  1  0.35297208  0.83909531  0.12077344  1
  Br  Br57  1  0.31328789  0.83673876  0.38589863  1
  Br  Br58  1  0.39854127  0.90776365  0.59231494  1
  Br  Br59  1  0.34833908  0.87525950  0.90223652  1
  Br  Br60  1  0.82984212  0.85976891  0.15651274  1
  Br  Br61  1  0.85571537  0.83884450  0.34011493  1
  Br  Br62  1  0.90253674  0.91384408  0.64186733  1
  Br  Br63  1  0.85410665  0.85338587  0.82592202  1
  Br  Br64  1  0.92955532  0.08649702  0.13449962  1
  Br  Br65  1  0.90803477  0.12795823  0.32656247  1
  Br  Br66  1  0.84489177  0.16124822  0.64037921  1
  Br  Br67  1  0.91476275  0.09604257  0.83707053  1
  Br  Br68  1  0.41324181  0.10195084  0.15446326  1
  Br  Br69  1  0.38528635  0.07740504  0.35255633  1
  Br  Br70  1  0.33963895  0.14436930  0.65503130  1
  Br  Br71  1  0.44123399  0.10267834  0.84774291  1
  Br  Br72  1  0.05644879  0.37787403  0.10207459  1
  Br  Br73  1  0.10259167  0.40322691  0.41334489  1
  Br  Br74  1  0.14483735  0.35269247  0.61871187  1
  Br  Br75  1  0.11184511  0.37429938  0.91104187  1
  Br  Br76  1  0.91143052  0.61216513  0.13629577  1
  Br  Br77  1  0.91095152  0.59553057  0.35167669  1
  Br  Br78  1  0.86088699  0.64831764  0.66281537  1
  Br  Br79  1  0.95931240  0.57762533  0.84407273  1
  Br  Br80  1  0.57389762  0.37763472  0.07900040  1
  Br  Br81  1  0.59368422  0.42953143  0.40615531  1
  Br  Br82  1  0.65052071  0.37650544  0.57614185  1
  Br  Br83  1  0.59057248  0.34793901  0.89002439  1
  Br  Br84  1  0.41323459  0.58800935  0.15199068  1
  Br  Br85  1  0.40667257  0.60433666  0.39102950  1
  Br  Br86  1  0.35091084  0.66323883  0.64643907  1
  Br  Br87  1  0.43295023  0.62250459  0.84078101  1
  Br  Br88  1  0.07651113  0.86230724  0.09824219  1
  Br  Br89  1  0.07892599  0.92245294  0.38763826  1
  Br  Br90  1  0.13971752  0.86571015  0.59603165  1
  Br  Br91  1  0.10149466  0.85908325  0.89343813  1
  Br  Br92  1  0.59780328  0.87970015  0.11201389  1
  Br  Br93  1  0.58242862  0.89268456  0.38873328  1
  Br  Br94  1  0.66394151  0.84876484  0.60874298  1
  Br  Br95  1  0.61464438  0.87783529  0.90091796  1
  Cd  Cd96  1  0.96993821  0.25287450  0.15478783  1
  Cd  Cd97  1  0.00702885  0.25976412  0.37577064  1
  Cd  Cd98  1  0.99343931  0.25285215  0.62133358  1
  Cd  Cd99  1  0.98377167  0.25577841  0.87192730  1
  Cd  Cd100  1  0.45614712  0.27448101  0.12947427  1
  Cd  Cd101  1  0.50531549  0.28413756  0.40844405  1
  Cd  Cd102  1  0.51455296  0.29282437  0.62086720  1
  Cd  Cd103  1  0.44767535  0.26194197  0.89824444  1
  Cd  Cd104  1  0.29655412  0.50973848  0.08551443  1
  Cd  Cd105  1  0.23782102  0.52278626  0.39352345  1
  Cd  Cd106  1  0.25069702  0.50965211  0.62974674  1
  Cd  Cd107  1  0.24287584  0.47668106  0.87778304  1
  Cd  Cd108  1  0.94366527  0.76467696  0.09270207  1
  Cd  Cd109  1  0.00867498  0.75246896  0.37660946  1
  Cd  Cd110  1  0.99595784  0.75521565  0.62159673  1
  Cd  Cd111  1  0.98243426  0.74899061  0.86276790  1
  Cd  Cd112  1  0.71365036  0.46658195  0.12808551  1
  Cd  Cd113  1  0.76087045  0.51432898  0.39244515  1
  Cd  Cd114  1  0.75253143  0.51468033  0.62319532  1
  Cd  Cd115  1  0.80425659  0.50998656  0.83683097  1
  Cd  Cd116  1  0.49580697  0.73963429  0.12140671  1
  Cd  Cd117  1  0.47203635  0.76388179  0.38168757  1
  Cd  Cd118  1  0.49928653  0.76484123  0.62987764  1
  Cd  Cd119  1  0.48719860  0.77490518  0.87308797  1
  Cd  Cd120  1  0.25199279  0.03547504  0.14273866  1
  Cd  Cd121  1  0.23613902  0.99990452  0.37632188  1
  Cd  Cd122  1  0.24973727  0.00680248  0.62077793  1
  Cd  Cd123  1  0.29440583  0.01663331  0.84390111  1
  Cd  Cd124  1  0.77769158  0.01056927  0.10707003  1
  Cd  Cd125  1  0.79916263  0.00117990  0.35555242  1
  Cd  Cd126  1  0.75080529  0.99975599  0.63593535  1
  Cd  Cd127  1  0.77747056  0.99475908  0.87729343  1
  Tl  Tl128  1  0.03283239  0.00753101  0.98602226  1
  Tl  Tl129  1  0.01334980  0.94151059  0.24147407  1
  Tl  Tl130  1  0.00868185  0.99427730  0.52020333  1
  Tl  Tl131  1  0.03718954  0.96466679  0.75817465  1
  Tl  Tl132  1  0.49177722  0.00173843  0.02197287  1
  Tl  Tl133  1  0.51576846  0.96288026  0.25365693  1
  Tl  Tl134  1  0.48939046  0.02890735  0.48081915  1
  Tl  Tl135  1  0.50207735  0.03615809  0.70396621  1
  Tl  Tl136  1  0.18113004  0.24383207  0.02522201  1
  Tl  Tl137  1  0.30283502  0.22541046  0.26669821  1
  Tl  Tl138  1  0.22367278  0.26491606  0.48788168  1
  Tl  Tl139  1  0.20449257  0.24282046  0.73896518  1
  Tl  Tl140  1  0.98445964  0.51475003  0.00654570  1
  Tl  Tl141  1  0.05370461  0.52815901  0.22648254  1
  Tl  Tl142  1  0.98022639  0.53477053  0.48979820  1
  Tl  Tl143  1  0.00787334  0.50042039  0.70343039  1
  Tl  Tl144  1  0.73275798  0.26696118  0.00190635  1
  Tl  Tl145  1  0.73241511  0.25326080  0.27942891  1
  Tl  Tl146  1  0.76707378  0.21785888  0.50680213  1
  Tl  Tl147  1  0.74970038  0.21345651  0.77633322  1
  Tl  Tl148  1  0.56190311  0.52316331  0.96861478  1
  Tl  Tl149  1  0.50788973  0.50299807  0.28095740  1
  Tl  Tl150  1  0.50114393  0.52566401  0.52575279  1
  Tl  Tl151  1  0.53609229  0.47213093  0.76587660  1
  Tl  Tl152  1  0.22750329  0.77915625  0.01146643  1
  Tl  Tl153  1  0.27880269  0.73326453  0.24009501  1
  Tl  Tl154  1  0.27918079  0.75130480  0.52284218  1
  Tl  Tl155  1  0.25931662  0.72102025  0.78006572  1
  Tl  Tl156  1  0.69797281  0.76265798  0.00739753  1
  Tl  Tl157  1  0.77477189  0.68259540  0.24434096  1
  Tl  Tl158  1  0.72954733  0.78736115  0.47076884  1
  Tl  Tl159  1  0.70693003  0.76117938  0.73898580  1
