# generated using pymatgen
data_TlCdF3
_symmetry_space_group_name_H-M   'P 1'
_cell_length_a   12.66991244
_cell_length_b   12.66991244
_cell_length_c   17.91796200
_cell_angle_alpha   90.00000000
_cell_angle_beta   90.00000000
_cell_angle_gamma   90.00000000
_symmetry_Int_Tables_number   1
_chemical_formula_structural   TlCdF3
_chemical_formula_sum   'Tl32 Cd32 F96'
_cell_volume   2876.31097224
_cell_formula_units_Z   32
loop_
 _symmetry_equiv_pos_site_id
 _symmetry_equiv_pos_as_xyz
  1  'x, y, z'
loop_
 _atom_site_type_symbol
 _atom_site_label
 _atom_site_symmetry_multiplicity
 _atom_site_fract_x
 _atom_site_fract_y
 _atom_site_fract_z
 _atom_site_occupancy
  Cd  Cd0  1  0.99964009  0.25006439  0.12603688  1
  Cd  Cd1  1  0.99978379  0.25009415  0.37485732  1
  Cd  Cd2  1  0.99936562  0.24919869  0.62532949  1
  Cd  Cd3  1  0.99923383  0.24804849  0.87615805  1
  Cd  Cd4  1  0.49953988  0.24911279  0.12532338  1
  Cd  Cd5  1  0.49943751  0.24797419  0.37616196  1
  Cd  Cd6  1  0.49943041  0.24972913  0.62601266  1
  Cd  Cd7  1  0.49948436  0.25003478  0.87490406  1
  Cd  Cd8  1  0.24982922  0.49902404  0.12507190  1
  Cd  Cd9  1  0.24965316  0.49859589  0.37579124  1
  Cd  Cd10  1  0.24962553  0.50036894  0.62611901  1
  Cd  Cd11  1  0.24986521  0.49988593  0.87493068  1
  Cd  Cd12  1  0.99961722  0.75004413  0.12605058  1
  Cd  Cd13  1  0.99973792  0.75005554  0.37486841  1
  Cd  Cd14  1  0.99927036  0.74918869  0.62535380  1
  Cd  Cd15  1  0.99931427  0.74806954  0.87614977  1
  Cd  Cd16  1  0.74987501  0.50045428  0.12635117  1
  Cd  Cd17  1  0.74978669  0.49986211  0.37500549  1
  Cd  Cd18  1  0.74964509  0.49861853  0.62497535  1
  Cd  Cd19  1  0.74960435  0.49822070  0.87596209  1
  Cd  Cd20  1  0.49947698  0.74930776  0.12529292  1
  Cd  Cd21  1  0.49928325  0.74812017  0.37611278  1
  Cd  Cd22  1  0.49941254  0.74977341  0.62598149  1
  Cd  Cd23  1  0.49961234  0.74997807  0.87480481  1
  Cd  Cd24  1  0.24987705  0.99906890  0.12503909  1
  Cd  Cd25  1  0.24964583  0.99870137  0.37566511  1
  Cd  Cd26  1  0.24959767  0.00037595  0.62610254  1
  Cd  Cd27  1  0.24965875  0.99983347  0.87499093  1
  Cd  Cd28  1  0.74987343  0.00033976  0.12629145  1
  Cd  Cd29  1  0.74990727  0.99973448  0.37503966  1
  Cd  Cd30  1  0.74968668  0.99851694  0.62514935  1
  Cd  Cd31  1  0.74970811  0.99847858  0.87573679  1
  F  F32  1  0.96269051  0.23877269  0.00173038  1
  F  F33  1  0.03911629  0.26156085  0.25031222  1
  F  F34  1  0.96449442  0.23932944  0.49965444  1
  F  F35  1  0.02999084  0.25883873  0.75087782  1
  F  F36  1  0.46453181  0.23915894  0.99971759  1
  F  F37  1  0.52988056  0.25859372  0.25090643  1
  F  F38  1  0.46267542  0.23815467  0.50164212  1
  F  F39  1  0.53868314  0.26077117  0.75033268  1
  F  F40  1  0.28634132  0.48941667  0.99955370  1
  F  F41  1  0.21839972  0.50712225  0.25037773  1
  F  F42  1  0.28423685  0.49003603  0.50165437  1
  F  F43  1  0.21072628  0.51112674  0.75066169  1
  F  F44  1  0.96279811  0.73848710  0.00174403  1
  F  F45  1  0.03900253  0.76160094  0.25032834  1
  F  F46  1  0.96467111  0.73952020  0.49967899  1
  F  F47  1  0.03055183  0.75861203  0.75092108  1
  F  F48  1  0.78483360  0.48947467  0.00184921  1
  F  F49  1  0.71039420  0.51053510  0.25082846  1
  F  F50  1  0.78642810  0.48885750  0.49948435  1
  F  F51  1  0.71815049  0.50863519  0.75039699  1
  F  F52  1  0.46463807  0.73943448  0.99956872  1
  F  F53  1  0.52983049  0.75848070  0.25090447  1
  F  F54  1  0.46248030  0.73858000  0.50162988  1
  F  F55  1  0.53870451  0.76036406  0.75023026  1
  F  F56  1  0.28646546  0.98886149  0.99954378  1
  F  F57  1  0.21800887  0.00786840  0.25027006  1
  F  F58  1  0.28390941  0.98982090  0.50153953  1
  F  F59  1  0.21067518  0.01124482  0.75072905  1
  F  F60  1  0.78443757  0.98925481  0.00168333  1
  F  F61  1  0.71058139  0.01050668  0.25083662  1
  F  F62  1  0.78661346  0.98869890  0.49961087  1
  F  F63  1  0.71775224  0.00917193  0.75036331  1
  F  F64  1  0.13974418  0.13897640  0.10627245  1
  F  F65  1  0.14176687  0.14123899  0.39258797  1
  F  F66  1  0.13962253  0.14041881  0.60612378  1
  F  F67  1  0.13750808  0.13712575  0.89712627  1
  F  F68  1  0.63969228  0.14001565  0.10592629  1
  F  F69  1  0.63784617  0.13703356  0.39723950  1
  F  F70  1  0.63927922  0.13826265  0.60601601  1
  F  F71  1  0.64095496  0.14039811  0.89313341  1
  F  F72  1  0.35568706  0.35450820  0.14159945  1
  F  F73  1  0.35475421  0.35314737  0.36099225  1
  F  F74  1  0.36217638  0.36343327  0.64871786  1
  F  F75  1  0.36287876  0.36371028  0.85200414  1
  F  F76  1  0.13966945  0.63894070  0.10661910  1
  F  F77  1  0.14150794  0.64099641  0.39267670  1
  F  F78  1  0.13960313  0.64049555  0.60601496  1
  F  F79  1  0.13776467  0.63718738  0.89675579  1
  F  F80  1  0.86307981  0.36418478  0.14935885  1
  F  F81  1  0.86340018  0.36413928  0.35178025  1
  F  F82  1  0.85543866  0.35441656  0.64180809  1
  F  F83  1  0.85496194  0.35341319  0.86060580  1
  F  F84  1  0.63908081  0.63966907  0.10578877  1
  F  F85  1  0.63736866  0.63689985  0.39747195  1
  F  F86  1  0.63934333  0.63841002  0.60608335  1
  F  F87  1  0.64158112  0.64073363  0.89273981  1
  F  F88  1  0.35514807  0.85412356  0.14159394  1
  F  F89  1  0.35471475  0.85334956  0.36054837  1
  F  F90  1  0.36236331  0.86363430  0.64862984  1
  F  F91  1  0.36302760  0.86384168  0.85185784  1
  F  F92  1  0.86276919  0.86386308  0.14911311  1
  F  F93  1  0.86307047  0.86377147  0.35191723  1
  F  F94  1  0.85569418  0.85456170  0.64240373  1
  F  F95  1  0.85486166  0.85330432  0.86070361  1
  F  F96  1  0.88604356  0.11446580  0.14971841  1
  F  F97  1  0.88644678  0.11407431  0.35234889  1
  F  F98  1  0.89371472  0.10425257  0.64106396  1
  F  F99  1  0.89305653  0.10409523  0.85964168  1
  F  F100  1  0.39433846  0.10391448  0.14121701  1
  F  F101  1  0.39383868  0.10352409  0.35973177  1
  F  F102  1  0.38617312  0.11387480  0.64965239  1
  F  F103  1  0.38644943  0.11367144  0.85235892  1
  F  F104  1  0.11170793  0.38753664  0.10366942  1
  F  F105  1  0.10971547  0.38963446  0.39575120  1
  F  F106  1  0.10652328  0.39231769  0.60909940  1
  F  F107  1  0.10968919  0.38832988  0.89456193  1
  F  F108  1  0.88594076  0.61453412  0.15000197  1
  F  F109  1  0.88604011  0.61428723  0.35206772  1
  F  F110  1  0.89378658  0.60410215  0.64117242  1
  F  F111  1  0.89321995  0.60384678  0.85986615  1
  F  F112  1  0.60778268  0.39125842  0.10869028  1
  F  F113  1  0.60980328  0.38808741  0.39450659  1
  F  F114  1  0.61118185  0.38746122  0.60427421  1
  F  F115  1  0.60967756  0.38935045  0.89541206  1
  F  F116  1  0.39418253  0.60413058  0.14110101  1
  F  F117  1  0.39355418  0.60368422  0.35977371  1
  F  F118  1  0.38629363  0.61377933  0.64944096  1
  F  F119  1  0.38669268  0.61361634  0.85235363  1
  F  F120  1  0.11126164  0.88793008  0.10394319  1
  F  F121  1  0.10937465  0.88999100  0.39510025  1
  F  F122  1  0.10646703  0.89234253  0.60932182  1
  F  F123  1  0.10945814  0.88846819  0.89465587  1
  F  F124  1  0.60724894  0.89173836  0.10896038  1
  F  F125  1  0.60987556  0.88807179  0.39474538  1
  F  F126  1  0.61150823  0.88718627  0.60384276  1
  F  F127  1  0.60992659  0.88922065  0.89509827  1
  Tl  Tl128  1  0.00450614  0.01494312  0.99805378  1
  Tl  Tl129  1  0.99494370  0.98488121  0.25117730  1
  Tl  Tl130  1  0.00390698  0.01568916  0.50332960  1
  Tl  Tl131  1  0.99651992  0.98286357  0.74958194  1
  Tl  Tl132  1  0.50426378  0.01588518  0.00307285  1
  Tl  Tl133  1  0.49663837  0.98339387  0.24979672  1
  Tl  Tl134  1  0.50430219  0.01475360  0.49813877  1
  Tl  Tl135  1  0.49415945  0.98470718  0.75119660  1
  Tl  Tl136  1  0.24457106  0.26573363  0.00282742  1
  Tl  Tl137  1  0.25333037  0.23445577  0.25115102  1
  Tl  Tl138  1  0.24544612  0.26536297  0.49769476  1
  Tl  Tl139  1  0.25435276  0.23478992  0.75004451  1
  Tl  Tl140  1  0.00459862  0.51483207  0.99779354  1
  Tl  Tl141  1  0.99445940  0.48490849  0.25117751  1
  Tl  Tl142  1  0.00385654  0.51554236  0.50355716  1
  Tl  Tl143  1  0.99647149  0.48307184  0.74982926  1
  Tl  Tl144  1  0.74508641  0.26509476  0.99800065  1
  Tl  Tl145  1  0.75482011  0.23520806  0.25017838  1
  Tl  Tl146  1  0.74465113  0.26492146  0.50298495  1
  Tl  Tl147  1  0.75318728  0.23309287  0.75130220  1
  Tl  Tl148  1  0.50391899  0.51585325  0.00362615  1
  Tl  Tl149  1  0.49670904  0.48349567  0.24989915  1
  Tl  Tl150  1  0.50447779  0.51495585  0.49798636  1
  Tl  Tl151  1  0.49452259  0.48468690  0.75098445  1
  Tl  Tl152  1  0.24487882  0.76551425  0.00308295  1
  Tl  Tl153  1  0.25327224  0.73407440  0.25115869  1
  Tl  Tl154  1  0.24532717  0.76517924  0.49781053  1
  Tl  Tl155  1  0.25458840  0.73461490  0.75008877  1
  Tl  Tl156  1  0.74536638  0.76518833  0.99768982  1
  Tl  Tl157  1  0.75505087  0.73547760  0.25013974  1
  Tl  Tl158  1  0.74448803  0.76514284  0.50291139  1
  Tl  Tl159  1  0.75287395  0.73255747  0.75152134  1
