# generated using pymatgen
data_TlCdCl3
_symmetry_space_group_name_H-M   'P 1'
_cell_length_a   14.84820013
_cell_length_b   14.84820013
_cell_length_c   20.99852600
_cell_angle_alpha   90.00000000
_cell_angle_beta   90.00000000
_cell_angle_gamma   90.00000000
_symmetry_Int_Tables_number   1
_chemical_formula_structural   TlCdCl3
_chemical_formula_sum   'Tl32 Cd32 Cl96'
_cell_volume   4629.52501744
_cell_formula_units_Z   32
loop_
 _symmetry_equiv_pos_site_id
 _symmetry_equiv_pos_as_xyz
  1  'x, y, z'
loop_
 _atom_site_type_symbol
 _atom_site_label
 _atom_site_symmetry_multiplicity
 _atom_site_fract_x
 _atom_site_fract_y
 _atom_site_fract_z
 _atom_site_occupancy
  Cd  Cd0  1  0.00021102  0.25007108  0.12502916  1
  Cd  Cd1  1  0.00031356  0.24977454  0.37501950  1
  Cd  Cd2  1  0.00022101  0.24997854  0.62490549  1
  Cd  Cd3  1  -0.00059337  0.25075608  0.87494492  1
  Cd  Cd4  1  0.50057065  0.25056119  0.12492898  1
  Cd  Cd5  1  0.50029036  0.24993204  0.37496359  1
  Cd  Cd6  1  0.50024698  0.25007213  0.62502080  1
  Cd  Cd7  1  0.49933609  0.25080499  0.87489584  1
  Cd  Cd8  1  0.25004795  0.50023908  0.12500696  1
  Cd  Cd9  1  0.25032581  0.49996723  0.37491692  1
  Cd  Cd10  1  0.25021743  0.50006631  0.62508694  1
  Cd  Cd11  1  0.24936750  0.50075562  0.87515845  1
  Cd  Cd12  1  0.00059144  0.75066907  0.12491071  1
  Cd  Cd13  1  0.00067609  0.74997302  0.37458594  1
  Cd  Cd14  1  0.00020407  0.75001338  0.62490044  1
  Cd  Cd15  1  -0.00052840  0.75074272  0.87494226  1
  Cd  Cd16  1  0.75065758  0.50030492  0.12449983  1
  Cd  Cd17  1  0.75040731  0.49983423  0.37477458  1
  Cd  Cd18  1  0.75041532  0.50012353  0.62477824  1
  Cd  Cd19  1  0.74961644  0.50076569  0.87434413  1
  Cd  Cd20  1  0.50046682  0.75036272  0.12476005  1
  Cd  Cd21  1  0.50064109  0.75017562  0.37489967  1
  Cd  Cd22  1  0.50026984  0.74999646  0.62505746  1
  Cd  Cd23  1  0.49926127  0.75088892  0.87502339  1
  Cd  Cd24  1  0.25083179  0.00080441  0.12488335  1
  Cd  Cd25  1  0.25073893  -0.00028766  0.37471129  1
  Cd  Cd26  1  0.25034068  -0.00004198  0.62483677  1
  Cd  Cd27  1  0.24936540  0.00060689  0.87493418  1
  Cd  Cd28  1  0.75060301  0.00053796  0.12504020  1
  Cd  Cd29  1  0.75040944  -0.00006800  0.37501292  1
  Cd  Cd30  1  0.75029704  -0.00003512  0.62494093  1
  Cd  Cd31  1  0.74961804  0.00065648  0.87492548  1
  Cl  Cl32  1  0.04117079  0.25014054  -0.00027727  1
  Cl  Cl33  1  -0.04095186  0.24994268  0.25029307  1
  Cl  Cl34  1  0.04186099  0.25034923  0.49967790  1
  Cl  Cl35  1  0.95880452  0.25002636  0.75006121  1
  Cl  Cl36  1  0.49976167  0.29181264  0.00011473  1
  Cl  Cl37  1  0.50087354  0.20891326  0.24960662  1
  Cl  Cl38  1  0.50011848  0.29119810  0.50018289  1
  Cl  Cl39  1  0.50017440  0.20924670  0.74977315  1
  Cl  Cl40  1  0.24939833  0.45893770  -0.00017162  1
  Cl  Cl41  1  0.25029048  0.54130534  0.25011058  1
  Cl  Cl42  1  0.25095526  0.45888324  0.49976214  1
  Cl  Cl43  1  0.25019558  0.54159876  0.75042562  1
  Cl  Cl44  1  0.99942236  0.79193601  0.00021575  1
  Cl  Cl45  1  0.00078081  0.70855494  0.24949419  1
  Cl  Cl46  1  0.00096284  0.79091281  0.50004307  1
  Cl  Cl47  1  0.00028099  0.70926760  0.74960724  1
  Cl  Cl48  1  0.70890924  0.50078755  -0.00009025  1
  Cl  Cl49  1  0.79166602  0.49943580  0.24945856  1
  Cl  Cl50  1  0.70912807  0.50028475  0.50012316  1
  Cl  Cl51  1  0.79167604  0.50059722  0.74935821  1
  Cl  Cl52  1  0.54157541  0.75022027  -0.00042859  1
  Cl  Cl53  1  0.45947467  0.75015208  0.25006008  1
  Cl  Cl54  1  0.54169057  0.74970618  0.49971168  1
  Cl  Cl55  1  0.45852643  0.75048871  0.75041672  1
  Cl  Cl56  1  0.20872339  0.00112026  0.00033052  1
  Cl  Cl57  1  0.29234867  -0.00014487  0.24952809  1
  Cl  Cl58  1  0.20961464  -0.00030956  0.50005733  1
  Cl  Cl59  1  0.29107634  0.00020658  0.74970288  1
  Cl  Cl60  1  0.75073769  0.95923057  -0.00032202  1
  Cl  Cl61  1  0.75065968  0.04155341  0.25035832  1
  Cl  Cl62  1  0.74959981  -0.04152208  0.49980017  1
  Cl  Cl63  1  0.75058745  0.04157961  0.75012469  1
  Cl  Cl64  1  0.14627807  0.14662659  0.14593490  1
  Cl  Cl65  1  0.10499816  0.10366042  0.35425084  1
  Cl  Cl66  1  0.14574704  0.14609001  0.64555923  1
  Cl  Cl67  1  0.10408126  0.10453133  0.85410375  1
  Cl  Cl68  1  0.64673109  0.14594216  0.10406157  1
  Cl  Cl69  1  0.60425925  0.10433052  0.39574997  1
  Cl  Cl70  1  0.64637732  0.14568919  0.60419295  1
  Cl  Cl71  1  0.60390297  0.10541240  0.89575619  1
  Cl  Cl72  1  0.35410490  0.35467535  0.14574217  1
  Cl  Cl73  1  0.39648033  0.39553054  0.35407195  1
  Cl  Cl74  1  0.35396791  0.35429328  0.64580376  1
  Cl  Cl75  1  0.39580076  0.39636788  0.85426829  1
  Cl  Cl76  1  0.14643906  0.64611534  0.10396815  1
  Cl  Cl77  1  0.10427866  0.60416832  0.39567598  1
  Cl  Cl78  1  0.14689855  0.64573645  0.60435621  1
  Cl  Cl79  1  0.10327763  0.60507372  0.89574505  1
  Cl  Cl80  1  0.85438973  0.35379863  0.10404140  1
  Cl  Cl81  1  0.89596834  0.39601422  0.39571219  1
  Cl  Cl82  1  0.85471305  0.35379634  0.60406736  1
  Cl  Cl83  1  0.89531491  0.39693450  0.89541374  1
  Cl  Cl84  1  0.64586064  0.64611443  0.14563803  1
  Cl  Cl85  1  0.60500362  0.60389158  0.35405592  1
  Cl  Cl86  1  0.64604661  0.64642517  0.64580476  1
  Cl  Cl87  1  0.60411325  0.60466158  0.85410766  1
  Cl  Cl88  1  0.35498369  0.85440242  0.10390662  1
  Cl  Cl89  1  0.39651421  0.89620040  0.39569179  1
  Cl  Cl90  1  0.35494488  0.85373326  0.60420144  1
  Cl  Cl91  1  0.39519923  0.89690656  0.89596330  1
  Cl  Cl92  1  0.85432463  0.85470341  0.14593371  1
  Cl  Cl93  1  0.89700901  0.89565096  0.35444799  1
  Cl  Cl94  1  0.85416937  0.85437247  0.64547959  1
  Cl  Cl95  1  0.89601670  0.89621631  0.85396264  1
  Cl  Cl96  1  0.89991099  0.10071090  0.10841023  1
  Cl  Cl97  1  0.85903023  0.14119722  0.39951494  1
  Cl  Cl98  1  0.89955730  0.10063196  0.60803758  1
  Cl  Cl99  1  0.85803644  0.14237035  0.89908112  1
  Cl  Cl100  1  0.39241106  0.10890066  0.10054629  1
  Cl  Cl101  1  0.35121377  0.14908753  0.39165293  1
  Cl  Cl102  1  0.39205211  0.10824716  0.60104047  1
  Cl  Cl103  1  0.35045972  0.14981240  0.89141719  1
  Cl  Cl104  1  0.10066807  0.39952119  0.14172333  1
  Cl  Cl105  1  0.14218388  0.35810759  0.35100540  1
  Cl  Cl106  1  0.10120127  0.39913773  0.64175977  1
  Cl  Cl107  1  0.14121510  0.35887307  0.85101182  1
  Cl  Cl108  1  0.89197896  0.60876201  0.10070245  1
  Cl  Cl109  1  0.85156478  0.64891406  0.39139136  1
  Cl  Cl110  1  0.89229433  0.60822228  0.60067644  1
  Cl  Cl111  1  0.85047083  0.64992417  0.89143913  1
  Cl  Cl112  1  0.60866706  0.39204743  0.14867696  1
  Cl  Cl113  1  0.64960356  0.35067525  0.35840907  1
  Cl  Cl114  1  0.60867508  0.39185839  0.64873446  1
  Cl  Cl115  1  0.64871121  0.35176721  0.85785110  1
  Cl  Cl116  1  0.39934504  0.60117077  0.10831755  1
  Cl  Cl117  1  0.35901148  0.64159492  0.39876569  1
  Cl  Cl118  1  0.39983970  0.60060111  0.60843831  1
  Cl  Cl119  1  0.35798195  0.64211941  0.89948392  1
  Cl  Cl120  1  0.10915866  0.89200938  0.14881868  1
  Cl  Cl121  1  0.15014314  0.85052692  0.35810872  1
  Cl  Cl122  1  0.10879226  0.89171449  0.64870056  1
  Cl  Cl123  1  0.14889235  0.85140256  0.85828480  1
  Cl  Cl124  1  0.60154666  0.89939207  0.14156797  1
  Cl  Cl125  1  0.64254778  0.85812174  0.35075422  1
  Cl  Cl126  1  0.60122581  0.89912424  0.64208261  1
  Cl  Cl127  1  0.64126184  0.85928421  0.85100042  1
  Tl  Tl128  1  -0.01093464  0.01137948  -0.01854396  1
  Tl  Tl129  1  -0.01755850  0.01809165  0.23913489  1
  Tl  Tl130  1  -0.00944703  0.01011418  0.48150675  1
  Tl  Tl131  1  -0.01775915  0.01849617  0.73878215  1
  Tl  Tl132  1  0.51931073  0.98206673  0.01076630  1
  Tl  Tl133  1  0.51176604  0.98947089  0.26843622  1
  Tl  Tl134  1  0.51910290  -0.01856687  0.51111412  1
  Tl  Tl135  1  0.51021200  0.98999496  0.76841136  1
  Tl  Tl136  1  0.26067096  0.23946969  0.01832433  1
  Tl  Tl137  1  0.26921956  0.23212864  0.26093958  1
  Tl  Tl138  1  0.26139218  0.23962047  0.51831313  1
  Tl  Tl139  1  0.26743263  0.23209352  0.76077363  1
  Tl  Tl140  1  0.01849971  0.48156004  0.01076356  1
  Tl  Tl141  1  0.01098718  0.48908730  0.26863732  1
  Tl  Tl142  1  0.01896411  0.48142268  0.51083684  1
  Tl  Tl143  1  0.01087413  0.49006118  0.76830523  1
  Tl  Tl144  1  0.73095432  0.26927149  0.98863132  1
  Tl  Tl145  1  0.73959384  0.26114560  0.23141532  1
  Tl  Tl146  1  0.73203925  0.26807695  0.48910597  1
  Tl  Tl147  1  0.73950906  0.26093901  0.73155815  1
  Tl  Tl148  1  0.48962857  0.51140502  -0.01837620  1
  Tl  Tl149  1  0.48204264  0.51871814  0.23885475  1
  Tl  Tl150  1  0.48967061  0.51064207  0.48152340  1
  Tl  Tl151  1  0.48220985  0.51829964  0.73922321  1
  Tl  Tl152  1  0.23148143  0.76947668  -0.01090102  1
  Tl  Tl153  1  0.24024456  0.76070673  0.23101334  1
  Tl  Tl154  1  0.23244351  0.76812277  0.48901255  1
  Tl  Tl155  1  0.23924462  0.76082285  0.73166664  1
  Tl  Tl156  1  0.76116628  0.73969618  0.01839708  1
  Tl  Tl157  1  0.76875454  0.73103163  0.26060675  1
  Tl  Tl158  1  0.76106982  0.73878088  0.51799904  1
  Tl  Tl159  1  0.76818748  0.73300008  0.76073841  1
