# generated using pymatgen
data_TlGeF3
_symmetry_space_group_name_H-M   'P 1'
_cell_length_a   12.61559815
_cell_length_b   12.61559815
_cell_length_c   17.84115000
_cell_angle_alpha   90.00000000
_cell_angle_beta   90.00000000
_cell_angle_gamma   90.00000000
_symmetry_Int_Tables_number   1
_chemical_formula_structural   TlGeF3
_chemical_formula_sum   'Tl32 Ge32 F96'
_cell_volume   2839.47819555
_cell_formula_units_Z   32
loop_
 _symmetry_equiv_pos_site_id
 _symmetry_equiv_pos_as_xyz
  1  'x, y, z'
loop_
 _atom_site_type_symbol
 _atom_site_label
 _atom_site_symmetry_multiplicity
 _atom_site_fract_x
 _atom_site_fract_y
 _atom_site_fract_z
 _atom_site_occupancy
  F  F0  1  0.97377263  0.26469122  0.04056013  1
  F  F1  1  0.00755033  0.21840110  0.29092424  1
  F  F2  1  0.99664740  0.28777447  0.53874278  1
  F  F3  1  0.96715679  0.21231508  0.78669183  1
  F  F4  1  0.50556778  0.23026681  0.96467909  1
  F  F5  1  0.47712995  0.27799416  0.21269060  1
  F  F6  1  0.55203735  0.26618869  0.46360654  1
  F  F7  1  0.46400061  0.30535136  0.72014364  1
  F  F8  1  0.27077768  0.43142204  0.97359680  1
  F  F9  1  0.22938312  0.53795639  0.21925151  1
  F  F10  1  0.27852229  0.44929259  0.47212718  1
  F  F11  1  0.23976505  0.53795131  0.71440358  1
  F  F12  1  0.01473651  0.71959846  0.97628673  1
  F  F13  1  0.96296873  0.76433635  0.21836334  1
  F  F14  1  0.03515845  0.74475521  0.46788840  1
  F  F15  1  0.00368740  0.78383774  0.72576608  1
  F  F16  1  0.69848354  0.47949273  0.96931571  1
  F  F17  1  0.80205373  0.53659806  0.21818002  1
  F  F18  1  0.73456324  0.46393590  0.46631863  1
  F  F19  1  0.81686157  0.55694714  0.72217959  1
  F  F20  1  0.53523096  0.77917119  0.04488087  1
  F  F21  1  0.46183082  0.74596021  0.29405832  1
  F  F22  1  0.55206146  0.77163345  0.54591709  1
  F  F23  1  0.44435845  0.74702586  0.79394583  1
  F  F24  1  0.21047929  0.99183527  0.95216945  1
  F  F25  1  0.30168625  0.03857708  0.21825182  1
  F  F26  1  0.21113640  0.96774384  0.47037456  1
  F  F27  1  0.33737383  0.03937543  0.71017321  1
  F  F28  1  0.78227600  0.92939925  0.98295262  1
  F  F29  1  0.72469407  0.03509006  0.22160624  1
  F  F30  1  0.76784106  0.93498203  0.47500833  1
  F  F31  1  0.77103093  0.04001529  0.72938605  1
  F  F32  1  0.16994605  0.12002157  0.11387453  1
  F  F33  1  0.08075877  0.14785596  0.42288635  1
  F  F34  1  0.08344551  0.15996016  0.64330641  1
  F  F35  1  0.18494725  0.11043366  0.82890679  1
  F  F36  1  0.61212082  0.18560283  0.11366517  1
  F  F37  1  0.67012554  0.09138843  0.40161169  1
  F  F38  1  0.60234087  0.16668178  0.66059911  1
  F  F39  1  0.65496737  0.07117024  0.90711287  1
  F  F40  1  0.31967847  0.39214316  0.13339518  1
  F  F41  1  0.38368696  0.30731915  0.37508699  1
  F  F42  1  0.38219466  0.45402554  0.61657852  1
  F  F43  1  0.36158770  0.28315403  0.86045046  1
  F  F44  1  0.10186605  0.67759258  0.12453045  1
  F  F45  1  0.17923204  0.60181884  0.39733334  1
  F  F46  1  0.05183010  0.61725877  0.63450476  1
  F  F47  1  0.12607269  0.55379674  0.89702059  1
  F  F48  1  0.87793109  0.32292929  0.17026447  1
  F  F49  1  0.83062294  0.39159152  0.34151144  1
  F  F50  1  0.84213275  0.41657664  0.60847957  1
  F  F51  1  0.91305993  0.34063267  0.89809123  1
  F  F52  1  0.66784313  0.60602516  0.11064870  1
  F  F53  1  0.58335076  0.65821001  0.40108868  1
  F  F54  1  0.60464408  0.67713096  0.67950698  1
  F  F55  1  0.66086900  0.60532651  0.84601260  1
  F  F56  1  0.38778598  0.83690726  0.15027862  1
  F  F57  1  0.32062732  0.89607885  0.35181299  1
  F  F58  1  0.36595738  0.92174523  0.58255473  1
  F  F59  1  0.39516921  0.84570510  0.92299457  1
  F  F60  1  0.81013077  0.88097897  0.13944800  1
  F  F61  1  0.89683611  0.81779869  0.36837077  1
  F  F62  1  0.90180590  0.95173721  0.62719248  1
  F  F63  1  0.96679260  0.88510037  0.88451867  1
  F  F64  1  0.82690036  0.08870466  0.09349233  1
  F  F65  1  0.87319781  0.04891782  0.36781054  1
  F  F66  1  0.87044831  0.19796947  0.64187437  1
  F  F67  1  0.86142967  0.09701522  0.90636435  1
  F  F68  1  0.39685293  0.16875889  0.09656846  1
  F  F69  1  0.42483233  0.10499891  0.41687248  1
  F  F70  1  0.40993457  0.19506585  0.59487639  1
  F  F71  1  0.38573756  0.06224895  0.87749495  1
  F  F72  1  0.09084803  0.33398521  0.15828774  1
  F  F73  1  0.05985725  0.36236803  0.39466128  1
  F  F74  1  0.17413512  0.39918166  0.60807159  1
  F  F75  1  0.11676252  0.33984304  0.84738313  1
  F  F76  1  0.88867735  0.66122153  0.09633304  1
  F  F77  1  0.93355470  0.60620059  0.37618727  1
  F  F78  1  0.86743638  0.71870678  0.61578437  1
  F  F79  1  0.85802804  0.56753574  0.89539399  1
  F  F80  1  0.65492887  0.40672918  0.15926401  1
  F  F81  1  0.61523857  0.42138104  0.34141378  1
  F  F82  1  0.65898302  0.42612687  0.69049229  1
  F  F83  1  0.53558341  0.39937354  0.87280389  1
  F  F84  1  0.33128482  0.60094528  0.09335759  1
  F  F85  1  0.38255686  0.55033671  0.36314590  1
  F  F86  1  0.39881005  0.69026636  0.63265150  1
  F  F87  1  0.32959323  0.61738502  0.91419405  1
  F  F88  1  0.15349205  0.91382604  0.15483684  1
  F  F89  1  0.11053360  0.93549891  0.34045858  1
  F  F90  1  0.17455137  0.92510097  0.65134687  1
  F  F91  1  0.14967239  0.77979203  0.86824758  1
  F  F92  1  0.59624121  0.83846417  0.18244845  1
  F  F93  1  0.54745523  0.87164047  0.40061118  1
  F  F94  1  0.69714302  0.88649727  0.64190359  1
  F  F95  1  0.59673006  0.85187633  0.87150603  1
  Ge  Ge96  1  0.98806711  0.22404714  0.14347080  1
  Ge  Ge97  1  0.96859256  0.23962406  0.39245236  1
  Ge  Ge98  1  0.99645703  0.28366820  0.64573587  1
  Ge  Ge99  1  0.01973586  0.23469998  0.88583998  1
  Ge  Ge100  1  0.49605846  0.28280103  0.10570032  1
  Ge  Ge101  1  0.50398681  0.21666669  0.36883958  1
  Ge  Ge102  1  0.52282238  0.28599081  0.62260066  1
  Ge  Ge103  1  0.50768230  0.25116442  0.85906910  1
  Ge  Ge104  1  0.21835137  0.50273111  0.11443695  1
  Ge  Ge105  1  0.25019219  0.47487096  0.36778197  1
  Ge  Ge106  1  0.25190032  0.52934594  0.60683547  1
  Ge  Ge107  1  0.26051123  0.49147156  0.87564185  1
  Ge  Ge108  1  0.98717549  0.77438814  0.11158749  1
  Ge  Ge109  1  0.02097796  0.72996764  0.36123230  1
  Ge  Ge110  1  0.01082575  0.76342188  0.61961040  1
  Ge  Ge111  1  0.00511551  0.73830071  0.87035705  1
  Ge  Ge112  1  0.76790324  0.49120907  0.11911080  1
  Ge  Ge113  1  0.73822867  0.50802348  0.36264782  1
  Ge  Ge114  1  0.74106508  0.52398177  0.63245434  1
  Ge  Ge115  1  0.74090853  0.48059476  0.86568996  1
  Ge  Ge116  1  0.49962646  0.73438395  0.14406965  1
  Ge  Ge117  1  0.46096732  0.74611424  0.40007085  1
  Ge  Ge118  1  0.51167266  0.78979364  0.64797204  1
  Ge  Ge119  1  0.49705535  0.74072980  0.89458467  1
  Ge  Ge120  1  0.26622674  0.00206484  0.11763761  1
  Ge  Ge121  1  0.23267225  0.01775298  0.36930704  1
  Ge  Ge122  1  0.26916578  0.03081517  0.61386350  1
  Ge  Ge123  1  0.26177266  0.98261268  0.85158603  1
  Ge  Ge124  1  0.71227696  0.99253925  0.11839521  1
  Ge  Ge125  1  0.74549871  0.96730188  0.37037315  1
  Ge  Ge126  1  0.76648931  0.01895198  0.62265390  1
  Ge  Ge127  1  0.76986027  0.97799996  0.88190653  1
  Tl  Tl128  1  0.99727966  0.00331360  0.00810660  1
  Tl  Tl129  1  0.97216775  0.99446149  0.23719333  1
  Tl  Tl130  1  0.99586014  0.96855136  0.48562009  1
  Tl  Tl131  1  0.01431850  0.00818510  0.74647214  1
  Tl  Tl132  1  0.49821829  0.00448017  0.00290410  1
  Tl  Tl133  1  0.49272195  0.97426522  0.27038912  1
  Tl  Tl134  1  0.54029382  0.00998741  0.51779060  1
  Tl  Tl135  1  0.53253070  0.00961994  0.76396436  1
  Tl  Tl136  1  0.25492116  0.21920361  0.98327840  1
  Tl  Tl137  1  0.25550990  0.24989446  0.23885287  1
  Tl  Tl138  1  0.23796519  0.24549100  0.50229691  1
  Tl  Tl139  1  0.25336461  0.26467725  0.73411652  1
  Tl  Tl140  1  0.99045998  0.49405533  0.00514907  1
  Tl  Tl141  1  0.99907686  0.47181510  0.25964838  1
  Tl  Tl142  1  0.00115252  0.50106823  0.50377805  1
  Tl  Tl143  1  0.01594871  0.50247363  0.76094102  1
  Tl  Tl144  1  0.75908073  0.24158504  -0.00001585  1
  Tl  Tl145  1  0.71303650  0.24626095  0.25171890  1
  Tl  Tl146  1  0.76446578  0.25854704  0.50695463  1
  Tl  Tl147  1  0.75469907  0.24557884  0.76358876  1
  Tl  Tl148  1  0.49015483  0.50725523  0.00371084  1
  Tl  Tl149  1  0.48004042  0.49791773  0.23519311  1
  Tl  Tl150  1  0.50292378  0.47743488  0.48246608  1
  Tl  Tl151  1  0.47835690  0.52581264  0.74896574  1
  Tl  Tl152  1  0.23918404  0.76306754  0.00630498  1
  Tl  Tl153  1  0.23271228  0.75356946  0.24605077  1
  Tl  Tl154  1  0.25213757  0.76235862  0.50809775  1
  Tl  Tl155  1  0.24958580  0.76046517  0.73897057  1
  Tl  Tl156  1  0.73943681  0.71780564  0.99302171  1
  Tl  Tl157  1  0.75858118  0.74169324  0.25389529  1
  Tl  Tl158  1  0.74388913  0.72770718  0.49440729  1
  Tl  Tl159  1  0.77064093  0.75962097  0.75616465  1
