# generated using pymatgen
data_TlGeBr3
_symmetry_space_group_name_H-M   'P 1'
_cell_length_a   15.59622859
_cell_length_b   15.59622859
_cell_length_c   22.05639800
_cell_angle_alpha   90.00000000
_cell_angle_beta   90.00000000
_cell_angle_gamma   90.00000000
_symmetry_Int_Tables_number   1
_chemical_formula_structural   TlGeBr3
_chemical_formula_sum   'Tl32 Ge32 Br96'
_cell_volume   5365.05000193
_cell_formula_units_Z   32
loop_
 _symmetry_equiv_pos_site_id
 _symmetry_equiv_pos_as_xyz
  1  'x, y, z'
loop_
 _atom_site_type_symbol
 _atom_site_label
 _atom_site_symmetry_multiplicity
 _atom_site_fract_x
 _atom_site_fract_y
 _atom_site_fract_z
 _atom_site_occupancy
  Br  Br0  1  0.08595600  0.12818841  0.96509981  1
  Br  Br1  1  0.09111140  0.14057276  0.27683670  1
  Br  Br2  1  0.11441456  0.14818151  0.47001364  1
  Br  Br3  1  0.15469348  0.11092040  0.77788186  1
  Br  Br4  1  0.57358882  0.13073484  0.02518758  1
  Br  Br5  1  0.58991482  0.14628631  0.22781619  1
  Br  Br6  1  0.62602586  0.16547310  0.53464835  1
  Br  Br7  1  0.65264542  0.10497635  0.72006236  1
  Br  Br8  1  0.37719627  0.33324168  0.03407740  1
  Br  Br9  1  0.39308792  0.34178740  0.22284039  1
  Br  Br10  1  0.40436627  0.35797315  0.53666649  1
  Br  Br11  1  0.35384508  0.41510713  0.72065082  1
  Br  Br12  1  0.07473962  0.62895075  0.03039291  1
  Br  Br13  1  0.08034078  0.65838407  0.23440246  1
  Br  Br14  1  0.12101559  0.67050142  0.52800970  1
  Br  Br15  1  0.15244787  0.60515040  0.71541146  1
  Br  Br16  1  0.87728361  0.33141548  0.96879313  1
  Br  Br17  1  0.89799568  0.34157725  0.27608125  1
  Br  Br18  1  0.91533930  0.36996014  0.47409087  1
  Br  Br19  1  0.85873551  0.40511874  0.78162954  1
  Br  Br20  1  0.58476951  0.62374104  0.96662660  1
  Br  Br21  1  0.58568955  0.64593322  0.27311644  1
  Br  Br22  1  0.61427239  0.64105174  0.46763570  1
  Br  Br23  1  0.65526555  0.60704299  0.77933610  1
  Br  Br24  1  0.37600880  0.83093731  0.96585314  1
  Br  Br25  1  0.39995346  0.83821446  0.27233446  1
  Br  Br26  1  0.41682994  0.87041410  0.47232188  1
  Br  Br27  1  0.35310993  0.90771704  0.77698045  1
  Br  Br28  1  0.87966790  0.83735539  0.02830082  1
  Br  Br29  1  0.88627092  0.84535904  0.21882883  1
  Br  Br30  1  0.90772483  0.85501932  0.52810643  1
  Br  Br31  1  0.85036730  0.91216046  0.72024278  1
  Br  Br32  1  0.83366889  0.07587393  0.98023202  1
  Br  Br33  1  0.85057946  0.08720153  0.26107843  1
  Br  Br34  1  0.87531777  0.11825515  0.48092860  1
  Br  Br35  1  0.89818235  0.13688680  0.78102442  1
  Br  Br36  1  0.34145991  0.08136460  0.97716909  1
  Br  Br37  1  0.35834543  0.09546655  0.27824502  1
  Br  Br38  1  0.37260380  0.11173640  0.46678267  1
  Br  Br39  1  0.41139129  0.14855406  0.77461097  1
  Br  Br40  1  0.13521135  0.37549762  0.03994672  1
  Br  Br41  1  0.15062113  0.38718443  0.22952590  1
  Br  Br42  1  0.16661055  0.40007378  0.51806716  1
  Br  Br43  1  0.10343602  0.34135998  0.73214518  1
  Br  Br44  1  0.84250046  0.58328494  0.98152198  1
  Br  Br45  1  0.85775980  0.59767946  0.28799056  1
  Br  Br46  1  0.86820234  0.60711761  0.47384556  1
  Br  Br47  1  0.91179560  0.65026317  0.77594005  1
  Br  Br48  1  0.63894826  0.37636552  0.00936367  1
  Br  Br49  1  0.66499571  0.40140400  0.23673596  1
  Br  Br50  1  0.67138376  0.41367074  0.52625080  1
  Br  Br51  1  0.60782244  0.34859125  0.72084682  1
  Br  Br52  1  0.33346723  0.57185885  0.97756193  1
  Br  Br53  1  0.34424385  0.58576408  0.25927524  1
  Br  Br54  1  0.37554929  0.61628691  0.47831314  1
  Br  Br55  1  0.39821410  0.64299598  0.77911801  1
  Br  Br56  1  0.13379304  0.87044773  0.00264089  1
  Br  Br57  1  0.16974675  0.90660210  0.23126701  1
  Br  Br58  1  0.17637985  0.91774041  0.52008816  1
  Br  Br59  1  0.10687470  0.84876459  0.71349562  1
  Br  Br60  1  0.63800160  0.88144840  0.03610667  1
  Br  Br61  1  0.64825019  0.88460047  0.22911158  1
  Br  Br62  1  0.66703280  0.90372097  0.52205925  1
  Br  Br63  1  0.59951225  0.83504934  0.72758809  1
  Br  Br64  1  0.99616882  0.03437723  0.11226267  1
  Br  Br65  1  0.99966165  0.95453870  0.36902089  1
  Br  Br66  1  0.01294128  0.06415299  0.61765514  1
  Br  Br67  1  0.98295745  0.93719580  0.86315784  1
  Br  Br68  1  0.44334322  0.97363000  0.12157706  1
  Br  Br69  1  0.55412253  0.01879237  0.36699300  1
  Br  Br70  1  0.44915799  0.00203002  0.61569670  1
  Br  Br71  1  0.54154251  0.99170183  0.87141466  1
  Br  Br72  1  0.22268649  0.18929255  0.12462692  1
  Br  Br73  1  0.27372172  0.29467133  0.36737119  1
  Br  Br74  1  0.25079912  0.20750426  0.61977564  1
  Br  Br75  1  0.24240855  0.29885044  0.87270902  1
  Br  Br76  1  0.94004298  0.47366491  0.12530685  1
  Br  Br77  1  0.05822497  0.52080743  0.37025168  1
  Br  Br78  1  0.95539427  0.49807384  0.61899472  1
  Br  Br79  1  0.04322863  0.49736558  0.87531878  1
  Br  Br80  1  0.78445936  0.23566210  0.11553777  1
  Br  Br81  1  0.70950160  0.25807163  0.37235101  1
  Br  Br82  1  0.81279293  0.26435554  0.62421282  1
  Br  Br83  1  0.68126317  0.23311289  0.86536580  1
  Br  Br84  1  0.49772744  0.53443135  0.12997175  1
  Br  Br85  1  0.50403923  0.45227205  0.38287225  1
  Br  Br86  1  0.50528279  0.56451504  0.63121737  1
  Br  Br87  1  0.48503425  0.44034238  0.87593724  1
  Br  Br88  1  0.28270782  0.73619265  0.11227471  1
  Br  Br89  1  0.20834055  0.77014004  0.37028532  1
  Br  Br90  1  0.31012879  0.76475134  0.62025888  1
  Br  Br91  1  0.18265173  0.73290733  0.86061654  1
  Br  Br92  1  0.73046813  0.69748388  0.13401297  1
  Br  Br93  1  0.77678118  0.80279428  0.38453428  1
  Br  Br94  1  0.75125160  0.69934841  0.63321070  1
  Br  Br95  1  0.74488751  0.80064888  0.88659388  1
  Ge  Ge96  1  0.98586180  0.00456431  0.99528276  1
  Ge  Ge97  1  0.99730329  0.00628473  0.25796870  1
  Ge  Ge98  1  0.01120040  0.02547230  0.50299126  1
  Ge  Ge99  1  0.98402456  0.99780585  0.75386045  1
  Ge  Ge100  1  0.48176802  0.99524524  0.00709426  1
  Ge  Ge101  1  0.49797437  0.01351466  0.25323672  1
  Ge  Ge102  1  0.49365788  0.01144598  0.50136768  1
  Ge  Ge103  1  0.48851665  0.00243258  0.76077829  1
  Ge  Ge104  1  0.23529165  0.24862254  0.01500356  1
  Ge  Ge105  1  0.25612015  0.25923235  0.24967297  1
  Ge  Ge106  1  0.27177847  0.26605057  0.51107476  1
  Ge  Ge107  1  0.23950140  0.25155008  0.75946953  1
  Ge  Ge108  1  0.97985128  0.49574411  0.01120830  1
  Ge  Ge109  1  0.99696903  0.52026831  0.25806905  1
  Ge  Ge110  1  0.99423129  0.50954484  0.50354165  1
  Ge  Ge111  1  0.99161443  0.50487041  0.76428583  1
  Ge  Ge112  1  0.75143584  0.23744929  0.00050269  1
  Ge  Ge113  1  0.75468792  0.26230782  0.25993588  1
  Ge  Ge114  1  0.75306247  0.26909210  0.51382436  1
  Ge  Ge115  1  0.73024138  0.24415363  0.75289856  1
  Ge  Ge116  1  0.48504490  0.49573674  0.98618321  1
  Ge  Ge117  1  0.49344556  0.51278299  0.24864049  1
  Ge  Ge118  1  0.50883600  0.51580657  0.49263137  1
  Ge  Ge119  1  0.48684232  0.51160861  0.74323371  1
  Ge  Ge120  1  0.25083043  0.73589879  0.99716688  1
  Ge  Ge121  1  0.25290321  0.76493266  0.25824014  1
  Ge  Ge122  1  0.25241707  0.77041912  0.50935794  1
  Ge  Ge123  1  0.22980409  0.74514393  0.74730396  1
  Ge  Ge124  1  0.73821639  0.75943417  0.00197554  1
  Ge  Ge125  1  0.75288378  0.75354072  0.24248253  1
  Ge  Ge126  1  0.77011656  0.77379124  0.50288475  1
  Ge  Ge127  1  0.73749158  0.74385651  0.74661874  1
  Tl  Tl128  1  0.01267627  0.26823654  0.14762756  1
  Tl  Tl129  1  0.05504819  0.29997356  0.37331169  1
  Tl  Tl130  1  0.02736488  0.27647308  0.59779267  1
  Tl  Tl131  1  0.01861086  0.26953691  0.86179848  1
  Tl  Tl132  1  0.54185470  0.28621153  0.12513486  1
  Tl  Tl133  1  0.48637804  0.22867218  0.35811090  1
  Tl  Tl134  1  0.48152531  0.22061041  0.63990346  1
  Tl  Tl135  1  0.47363050  0.23000330  0.90825078  1
  Tl  Tl136  1  0.28095438  0.50146525  0.12098909  1
  Tl  Tl137  1  0.26884361  0.50174729  0.38242672  1
  Tl  Tl138  1  0.28629938  0.53713169  0.60531584  1
  Tl  Tl139  1  0.25456616  0.51066425  0.84205980  1
  Tl  Tl140  1  0.03966480  0.79019012  0.12489452  1
  Tl  Tl141  1  0.98744316  0.72890345  0.37407989  1
  Tl  Tl142  1  0.97866058  0.71756925  0.63705546  1
  Tl  Tl143  1  0.97965801  0.72902600  0.90861645  1
  Tl  Tl144  1  0.73484843  0.49336550  0.11160654  1
  Tl  Tl145  1  0.72616978  0.48255638  0.38564988  1
  Tl  Tl146  1  0.74649747  0.48538357  0.65766838  1
  Tl  Tl147  1  0.71978109  0.46676737  0.88759008  1
  Tl  Tl148  1  0.51442617  0.76536301  0.14550853  1
  Tl  Tl149  1  0.55615793  0.79893479  0.37263690  1
  Tl  Tl150  1  0.52128199  0.77141793  0.59447155  1
  Tl  Tl151  1  0.52454425  0.76721386  0.86265402  1
  Tl  Tl152  1  0.23961521  0.98545841  0.10196042  1
  Tl  Tl153  1  0.22014810  0.99463581  0.37869124  1
  Tl  Tl154  1  0.23973961  0.99443695  0.65315449  1
  Tl  Tl155  1  0.21586382  0.96738141  0.88340027  1
  Tl  Tl156  1  0.78254432  0.00043960  0.12616430  1
  Tl  Tl157  1  0.76426520  0.01233542  0.38336140  1
  Tl  Tl158  1  0.78447643  0.04247460  0.60846132  1
  Tl  Tl159  1  0.75530904  0.00783504  0.84704732  1
