# generated using pymatgen
data_TlGeI3
_symmetry_space_group_name_H-M   'P 1'
_cell_length_a   16.66254562
_cell_length_b   16.66254562
_cell_length_c   23.56439700
_cell_angle_alpha   90.00000000
_cell_angle_beta   90.00000000
_cell_angle_gamma   90.00000000
_symmetry_Int_Tables_number   1
_chemical_formula_structural   TlGeI3
_chemical_formula_sum   'Tl32 Ge32 I96'
_cell_volume   6542.42923450
_cell_formula_units_Z   32
loop_
 _symmetry_equiv_pos_site_id
 _symmetry_equiv_pos_as_xyz
  1  'x, y, z'
loop_
 _atom_site_type_symbol
 _atom_site_label
 _atom_site_symmetry_multiplicity
 _atom_site_fract_x
 _atom_site_fract_y
 _atom_site_fract_z
 _atom_site_occupancy
  Ge  Ge0  1  0.01300989  0.00873670  0.01270701  1
  Ge  Ge1  1  0.01168487  0.00839854  0.25758432  1
  Ge  Ge2  1  0.01137612  0.99430509  0.51000990  1
  Ge  Ge3  1  0.00810736  0.99097678  0.75578818  1
  Ge  Ge4  1  0.49717843  0.00779519  0.01004475  1
  Ge  Ge5  1  0.52306466  0.00879988  0.25326510  1
  Ge  Ge6  1  0.49539356  0.98690203  0.50407960  1
  Ge  Ge7  1  0.48255613  0.01000693  0.75537323  1
  Ge  Ge8  1  0.24708023  0.25312520  0.00095646  1
  Ge  Ge9  1  0.26479435  0.24343666  0.26396463  1
  Ge  Ge10  1  0.26675109  0.27144336  0.50515253  1
  Ge  Ge11  1  0.23646681  0.25693576  0.76013331  1
  Ge  Ge12  1  0.99640775  0.51013057  0.00662296  1
  Ge  Ge13  1  0.01851727  0.51176483  0.25143700  1
  Ge  Ge14  1  0.99535388  0.48780632  0.50229486  1
  Ge  Ge15  1  0.98430843  0.51143956  0.75495431  1
  Ge  Ge16  1  0.75143880  0.26054264  0.99755468  1
  Ge  Ge17  1  0.76872719  0.24320927  0.25226916  1
  Ge  Ge18  1  0.75401464  0.25221929  0.51440745  1
  Ge  Ge19  1  0.75762167  0.22125873  0.75376739  1
  Ge  Ge20  1  0.51504604  0.49908157  0.00964146  1
  Ge  Ge21  1  0.51388654  0.51231317  0.25405609  1
  Ge  Ge22  1  0.51180282  0.49320018  0.50893587  1
  Ge  Ge23  1  0.50842572  0.48992573  0.75526169  1
  Ge  Ge24  1  0.24787422  0.75896992  0.99506372  1
  Ge  Ge25  1  0.26121660  0.74375212  0.25379917  1
  Ge  Ge26  1  0.25438205  0.75440990  0.51264985  1
  Ge  Ge27  1  0.25852243  0.72429987  0.75197701  1
  Ge  Ge28  1  0.74624504  0.75579530  0.00693168  1
  Ge  Ge29  1  0.76086723  0.74438527  0.26373153  1
  Ge  Ge30  1  0.76698146  0.77083177  0.50400057  1
  Ge  Ge31  1  0.73425391  0.75839160  0.76118990  1
  I  I32  1  0.16646378  0.07239930  0.02215607  1
  I  I33  1  0.10377702  0.13891475  0.22140385  1
  I  I34  1  0.14526150  0.09974164  0.53146254  1
  I  I35  1  0.13979807  0.08890522  0.72714725  1
  I  I36  1  0.64740589  0.08406899  0.02687232  1
  I  I37  1  0.59080703  0.15960746  0.23146876  1
  I  I38  1  0.65327226  0.11655989  0.52657585  1
  I  I39  1  0.65678295  0.09749533  0.71945723  1
  I  I40  1  0.34677685  0.38763930  0.97390621  1
  I  I41  1  0.39745723  0.34553577  0.28477103  1
  I  I42  1  0.33585501  0.41954120  0.47819633  1
  I  I43  1  0.33373304  0.39347619  0.77920045  1
  I  I44  1  0.14544680  0.58765782  0.02675387  1
  I  I45  1  0.08584595  0.66327847  0.23046993  1
  I  I46  1  0.15397683  0.61764733  0.52260863  1
  I  I47  1  0.15760598  0.59967129  0.71848049  1
  I  I48  1  0.84899689  0.38658719  0.96075549  1
  I  I49  1  0.91082704  0.33575225  0.25767168  1
  I  I50  1  0.84897747  0.41858005  0.47099626  1
  I  I51  1  0.84585221  0.41773199  0.76922704  1
  I  I52  1  0.66338501  0.57379944  0.02057397  1
  I  I53  1  0.59993402  0.64582663  0.21508308  1
  I  I54  1  0.64583992  0.59781000  0.53032826  1
  I  I55  1  0.64055102  0.58830713  0.72755353  1
  I  I56  1  0.34942189  0.88465683  0.96219068  1
  I  I57  1  0.39931109  0.84338964  0.26362183  1
  I  I58  1  0.34925873  0.91879398  0.47060685  1
  I  I59  1  0.34363330  0.91726211  0.76916335  1
  I  I60  1  0.84193100  0.89119980  0.97601740  1
  I  I61  1  0.89480904  0.84435443  0.28862850  1
  I  I62  1  0.83576468  0.91942350  0.47871165  1
  I  I63  1  0.83065597  0.89626797  0.77911010  1
  I  I64  1  0.92416318  0.14995546  0.03145503  1
  I  I65  1  0.84668035  0.10030201  0.22307156  1
  I  I66  1  0.89895956  0.16544315  0.52996836  1
  I  I67  1  0.89958642  0.14875511  0.71766571  1
  I  I68  1  0.40980986  0.15297034  0.00263327  1
  I  I69  1  0.34659533  0.09929897  0.28184386  1
  I  I70  1  0.40785879  0.17727727  0.50406704  1
  I  I71  1  0.40020285  0.15395878  0.72658995  1
  I  I72  1  0.09926932  0.34087451  0.98708928  1
  I  I73  1  0.15351370  0.41837790  0.22242790  1
  I  I74  1  0.08408759  0.34644987  0.49669103  1
  I  I75  1  0.08899921  0.33913511  0.77574386  1
  I  I76  1  0.90784874  0.65248029  0.99704389  1
  I  I77  1  0.84249980  0.59782123  0.27884387  1
  I  I78  1  0.90884450  0.67743623  0.50128737  1
  I  I79  1  0.90151994  0.65566790  0.72857202  1
  I  I80  1  0.60457297  0.33189592  0.96690402  1
  I  I81  1  0.64953088  0.41263979  0.27299859  1
  I  I82  1  0.60245214  0.36540805  0.46753843  1
  I  I83  1  0.59689539  0.34864747  0.77701617  1
  I  I84  1  0.41031769  0.63408771  0.02346008  1
  I  I85  1  0.34620593  0.60538702  0.21976141  1
  I  I86  1  0.39946102  0.66700523  0.52805472  1
  I  I87  1  0.39972225  0.64904955  0.71735587  1
  I  I88  1  0.10265019  0.83398613  0.96815892  1
  I  I89  1  0.14831446  0.90842885  0.27745288  1
  I  I90  1  0.10323264  0.86747466  0.46752286  1
  I  I91  1  0.09695835  0.84954709  0.77797713  1
  I  I92  1  0.59394863  0.83460467  0.00285487  1
  I  I93  1  0.65544211  0.91264145  0.22571653  1
  I  I94  1  0.58496432  0.84643008  0.49689644  1
  I  I95  1  0.58590271  0.83883255  0.77513205  1
  I  I96  1  0.00029693  0.94722498  0.12493914  1
  I  I97  1  0.99255237  0.05878206  0.37276361  1
  I  I98  1  0.99158961  0.93579492  0.62127612  1
  I  I99  1  0.00170158  0.03703581  0.87217622  1
  I  I100  1  0.45409006  0.98437994  0.12349390  1
  I  I101  1  0.55622790  0.01363602  0.37109419  1
  I  I102  1  0.48343070  0.96083707  0.62196598  1
  I  I103  1  0.50664707  0.05011621  0.86925505  1
  I  I104  1  0.25909217  0.26822459  0.11904734  1
  I  I105  1  0.19844103  0.25351150  0.37101785  1
  I  I106  1  0.25496992  0.30129774  0.62307606  1
  I  I107  1  0.24604316  0.19435125  0.87053650  1
  I  I108  1  0.95280135  0.48745351  0.12046937  1
  I  I109  1  0.05407561  0.51190702  0.36875098  1
  I  I110  1  0.98517185  0.46661865  0.62091624  1
  I  I111  1  0.01158386  0.55255347  0.86812933  1
  I  I112  1  0.74228608  0.30353532  0.11344954  1
  I  I113  1  0.75330460  0.20962085  0.36916596  1
  I  I114  1  0.73617010  0.30961776  0.62481048  1
  I  I115  1  0.76885757  0.17082445  0.86882693  1
  I  I116  1  0.49928901  0.44466753  0.12320258  1
  I  I117  1  0.49242366  0.55760939  0.37012695  1
  I  I118  1  0.49135611  0.43671204  0.62053124  1
  I  I119  1  0.50193292  0.53647232  0.87132750  1
  I  I120  1  0.24483899  0.79982990  0.11384312  1
  I  I121  1  0.25158834  0.70373427  0.36957353  1
  I  I122  1  0.23499705  0.80924225  0.62362400  1
  I  I123  1  0.26943656  0.67624637  0.86810707  1
  I  I124  1  0.78411790  0.76398753  0.12269414  1
  I  I125  1  0.69379004  0.74754465  0.37142476  1
  I  I126  1  0.75626031  0.79590126  0.62254342  1
  I  I127  1  0.74119382  0.69976133  0.87222837  1
  Tl  Tl128  1  0.03328922  0.28963303  0.13057416  1
  Tl  Tl129  1  0.95934651  0.26504499  0.39283476  1
  Tl  Tl130  1  0.04710731  0.25170009  0.62806133  1
  Tl  Tl131  1  0.96815868  0.24263402  0.88730585  1
  Tl  Tl132  1  0.54231903  0.24102253  0.09802641  1
  Tl  Tl133  1  0.52209849  0.22098826  0.37007096  1
  Tl  Tl134  1  0.53936013  0.22629982  0.62416403  1
  Tl  Tl135  1  0.44946479  0.25560607  0.86723384  1
  Tl  Tl136  1  0.28852374  0.47703192  0.10547463  1
  Tl  Tl137  1  0.26761325  0.48963751  0.34316977  1
  Tl  Tl138  1  0.29462579  0.51728304  0.61440805  1
  Tl  Tl139  1  0.20259327  0.47227154  0.88056305  1
  Tl  Tl140  1  0.03182966  0.74219586  0.09624651  1
  Tl  Tl141  1  0.02456677  0.72174861  0.37133629  1
  Tl  Tl142  1  0.03864009  0.72338295  0.62200464  1
  Tl  Tl143  1  0.94732081  0.75819821  0.86582391  1
  Tl  Tl144  1  0.74139984  0.51100892  0.15558059  1
  Tl  Tl145  1  0.70391792  0.53439761  0.39022872  1
  Tl  Tl146  1  0.78382723  0.51419788  0.63491145  1
  Tl  Tl147  1  0.70516324  0.48605232  0.87053403  1
  Tl  Tl148  1  0.46608464  0.76984918  0.13193880  1
  Tl  Tl149  1  0.46107649  0.76246048  0.39371093  1
  Tl  Tl150  1  0.54790111  0.74854279  0.62708323  1
  Tl  Tl151  1  0.47063451  0.74220363  0.89098806  1
  Tl  Tl152  1  0.24202822  0.00451616  0.15945854  1
  Tl  Tl153  1  0.20356815  0.03697930  0.39147212  1
  Tl  Tl154  1  0.28318853  0.01355013  0.63485540  1
  Tl  Tl155  1  0.20410286  0.98259777  0.87276348  1
  Tl  Tl156  1  0.78532455  0.97244549  0.11064025  1
  Tl  Tl157  1  0.76738275  0.99327081  0.34333554  1
  Tl  Tl158  1  0.79470744  0.01288564  0.61612352  1
  Tl  Tl159  1  0.69866527  0.97054649  0.88151688  1
