# generated using pymatgen
data_TlGeCl3
_symmetry_space_group_name_H-M   'P 1'
_cell_length_a   14.85650439
_cell_length_b   14.85650439
_cell_length_c   21.01026900
_cell_angle_alpha   90.00000000
_cell_angle_beta   90.00000000
_cell_angle_gamma   90.00000000
_symmetry_Int_Tables_number   1
_chemical_formula_structural   TlGeCl3
_chemical_formula_sum   'Tl32 Ge32 Cl96'
_cell_volume   4637.29670722
_cell_formula_units_Z   32
loop_
 _symmetry_equiv_pos_site_id
 _symmetry_equiv_pos_as_xyz
  1  'x, y, z'
loop_
 _atom_site_type_symbol
 _atom_site_label
 _atom_site_symmetry_multiplicity
 _atom_site_fract_x
 _atom_site_fract_y
 _atom_site_fract_z
 _atom_site_occupancy
  Cl  Cl0  1  0.15921650  0.11860034  0.96385484  1
  Cl  Cl1  1  0.09568247  0.14361071  0.27916715  1
  Cl  Cl2  1  0.14263719  0.08962880  0.47204674  1
  Cl  Cl3  1  0.11201327  0.17392826  0.77119680  1
  Cl  Cl4  1  0.65151817  0.10496161  0.03131338  1
  Cl  Cl5  1  0.59173540  0.13459139  0.22501283  1
  Cl  Cl6  1  0.63564560  0.08793783  0.52967843  1
  Cl  Cl7  1  0.58706946  0.13444572  0.72935771  1
  Cl  Cl8  1  0.36397967  0.41589078  0.02105331  1
  Cl  Cl9  1  0.39584747  0.34324525  0.22077049  1
  Cl  Cl10  1  0.34515128  0.38389258  0.52684285  1
  Cl  Cl11  1  0.41481854  0.36544661  0.71668206  1
  Cl  Cl12  1  0.15596305  0.60440826  0.03222851  1
  Cl  Cl13  1  0.08525919  0.63931046  0.22750848  1
  Cl  Cl14  1  0.13675657  0.58705335  0.53085636  1
  Cl  Cl15  1  0.08130387  0.63914996  0.72961338  1
  Cl  Cl16  1  0.85796835  0.40122134  -0.02540941  1
  Cl  Cl17  1  0.88676266  0.33795633  0.28529253  1
  Cl  Cl18  1  0.83977121  0.38257172  0.47882174  1
  Cl  Cl19  1  0.88392067  0.33707710  0.78355888  1
  Cl  Cl20  1  0.66206699  0.61761418  -0.03343172  1
  Cl  Cl21  1  0.59353003  0.64027858  0.28014549  1
  Cl  Cl22  1  0.64530915  0.59173753  0.47389866  1
  Cl  Cl23  1  0.61508422  0.66425802  0.76997853  1
  Cl  Cl24  1  0.35457643  0.90228700  0.97206022  1
  Cl  Cl25  1  0.38130123  0.83879303  0.28178331  1
  Cl  Cl26  1  0.34019386  0.88463759  0.47610213  1
  Cl  Cl27  1  0.37944580  0.83663650  0.78051313  1
  Cl  Cl28  1  0.86409241  0.91136975  0.02522103  1
  Cl  Cl29  1  0.89330788  0.84202953  0.22386970  1
  Cl  Cl30  1  0.84463122  0.88888407  0.52850184  1
  Cl  Cl31  1  0.91456908  0.87212734  0.71982124  1
  Cl  Cl32  1  0.90359156  0.13461983  0.97712248  1
  Cl  Cl33  1  0.83673992  0.10657200  0.27538899  1
  Cl  Cl34  1  0.90830012  0.13417530  0.47300717  1
  Cl  Cl35  1  0.83810378  0.10383092  0.77379323  1
  Cl  Cl36  1  0.39092979  0.16210310  -0.02397923  1
  Cl  Cl37  1  0.36865145  0.09485535  0.27230175  1
  Cl  Cl38  1  0.41196022  0.13764296  0.47923990  1
  Cl  Cl39  1  0.36331399  0.09247349  0.77534773  1
  Cl  Cl40  1  0.08362135  0.35996750  0.02150623  1
  Cl  Cl41  1  0.16273335  0.39139690  0.22020625  1
  Cl  Cl42  1  0.10933840  0.33505018  0.52321226  1
  Cl  Cl43  1  0.16126562  0.39355291  0.71722832  1
  Cl  Cl44  1  0.89222712  0.66601340  0.97543119  1
  Cl  Cl45  1  0.86593633  0.59122405  0.27933530  1
  Cl  Cl46  1  0.91288955  0.63835346  0.48165638  1
  Cl  Cl47  1  0.86158378  0.58934091  0.78073667  1
  Cl  Cl48  1  0.60808664  0.34140769  0.03305771  1
  Cl  Cl49  1  0.64331026  0.41798216  0.22857840  1
  Cl  Cl50  1  0.61465177  0.34591242  0.52995800  1
  Cl  Cl51  1  0.64624106  0.41331942  0.72837969  1
  Cl  Cl52  1  0.40518038  0.63728452  -0.03110076  1
  Cl  Cl53  1  0.33115653  0.60616114  0.27785202  1
  Cl  Cl54  1  0.40996450  0.63749199  0.46612341  1
  Cl  Cl55  1  0.33313282  0.60336778  0.77287486  1
  Cl  Cl56  1  0.11202453  0.83830919  0.02888307  1
  Cl  Cl57  1  0.14513769  0.91969426  0.22803779  1
  Cl  Cl58  1  0.11619419  0.84154558  0.52665448  1
  Cl  Cl59  1  0.14702625  0.91543634  0.72623409  1
  Cl  Cl60  1  0.57911414  0.85375552  0.02162956  1
  Cl  Cl61  1  0.65989400  0.88363371  0.22143908  1
  Cl  Cl62  1  0.60836121  0.83606931  0.52267840  1
  Cl  Cl63  1  0.65956403  0.88549626  0.72176862  1
  Cl  Cl64  1  0.00445594  0.06107094  0.13495452  1
  Cl  Cl65  1  -0.00522369  -0.04806645  0.38234947  1
  Cl  Cl66  1  0.00310459  0.05611789  0.63289718  1
  Cl  Cl67  1  -0.00767367  0.95508891  0.88560269  1
  Cl  Cl68  1  0.43914092  -0.00608611  0.11494652  1
  Cl  Cl69  1  0.55045725  0.00471539  0.36242182  1
  Cl  Cl70  1  0.45265177  -0.00412498  0.61334886  1
  Cl  Cl71  1  0.54442060  0.00118680  0.86512808  1
  Cl  Cl72  1  0.24823859  0.20362375  0.10878989  1
  Cl  Cl73  1  0.26470569  0.30114869  0.35959289  1
  Cl  Cl74  1  0.25587614  0.20077145  0.61462088  1
  Cl  Cl75  1  0.25983475  0.31135104  0.86131391  1
  Cl  Cl76  1  0.94103010  0.49767631  0.11602663  1
  Cl  Cl77  1  0.05301434  0.50358570  0.36445068  1
  Cl  Cl78  1  -0.04897185  0.49777274  0.61506199  1
  Cl  Cl79  1  0.04615946  0.50068627  0.86599537  1
  Cl  Cl80  1  0.79841914  0.24878775  0.14249134  1
  Cl  Cl81  1  0.69499216  0.24158635  0.39055383  1
  Cl  Cl82  1  0.79342331  0.24513231  0.64226727  1
  Cl  Cl83  1  0.69237991  0.23907264  0.89413519  1
  Cl  Cl84  1  0.50789437  0.56024911  0.11062601  1
  Cl  Cl85  1  0.50500549  0.45075891  0.36230607  1
  Cl  Cl86  1  0.50962181  0.55898406  0.60941691  1
  Cl  Cl87  1  0.50585053  0.45317805  0.86041780  1
  Cl  Cl88  1  0.29848781  0.75356344  0.11794852  1
  Cl  Cl89  1  0.19223300  0.75449598  0.36760710  1
  Cl  Cl90  1  0.29960726  0.75389955  0.61480559  1
  Cl  Cl91  1  0.19430738  0.74886165  0.86712665  1
  Cl  Cl92  1  0.74680774  0.70093059  0.13402706  1
  Cl  Cl93  1  0.75023986  0.79928384  0.38727397  1
  Cl  Cl94  1  0.75337099  0.70190441  0.63588512  1
  Cl  Cl95  1  0.74881048  0.80603892  0.88328930  1
  Ge  Ge96  1  -0.00563894  0.00085619  -0.00400782  1
  Ge  Ge97  1  0.01128859  0.01227175  0.24623181  1
  Ge  Ge98  1  0.00573075  0.00344514  0.49128497  1
  Ge  Ge99  1  0.00952187  0.00249896  0.74158900  1
  Ge  Ge100  1  0.48630085  0.98758781  0.00367883  1
  Ge  Ge101  1  0.50172695  0.00397314  0.25200215  1
  Ge  Ge102  1  0.50048466  0.00277775  0.50266697  1
  Ge  Ge103  1  0.49727898  0.00266126  0.75434026  1
  Ge  Ge104  1  0.25275855  0.24437170  -0.00403761  1
  Ge  Ge105  1  0.25779138  0.26375444  0.24669511  1
  Ge  Ge106  1  0.24944056  0.25317684  0.50642222  1
  Ge  Ge107  1  0.24700032  0.26315623  0.75085276  1
  Ge  Ge108  1  -0.01254534  0.49100387  0.00448972  1
  Ge  Ge109  1  0.00100918  0.50513614  0.25484035  1
  Ge  Ge110  1  0.00073899  0.50363542  0.50487126  1
  Ge  Ge111  1  -0.00278505  0.50388608  0.75563807  1
  Ge  Ge112  1  0.73279734  0.24321900  0.00677472  1
  Ge  Ge113  1  0.75777981  0.24628712  0.25508764  1
  Ge  Ge114  1  0.74253271  0.25387932  0.50070904  1
  Ge  Ge115  1  0.75646791  0.24260515  0.75473547  1
  Ge  Ge116  1  0.49488890  0.50930065  0.00007621  1
  Ge  Ge117  1  0.50916754  0.50510469  0.25344919  1
  Ge  Ge118  1  0.50684016  0.51309543  0.49716667  1
  Ge  Ge119  1  0.50713238  0.49302952  0.74802638  1
  Ge  Ge120  1  0.24197168  0.74157605  0.00990530  1
  Ge  Ge121  1  0.24868846  0.74521913  0.25959099  1
  Ge  Ge122  1  0.25057846  0.75272202  0.50397192  1
  Ge  Ge123  1  0.24844163  0.74195272  0.75801189  1
  Ge  Ge124  1  0.75355058  0.74941512  -0.00829687  1
  Ge  Ge125  1  0.75701487  0.75482668  0.24259523  1
  Ge  Ge126  1  0.75025628  0.76029079  0.50108312  1
  Ge  Ge127  1  0.74810844  0.75204147  0.74653643  1
  Tl  Tl128  1  0.01084925  0.27386655  0.15084808  1
  Tl  Tl129  1  0.02365988  0.26906064  0.39134390  1
  Tl  Tl130  1  0.00786904  0.27128432  0.65057821  1
  Tl  Tl131  1  0.01939182  0.26891338  0.89155151  1
  Tl  Tl132  1  0.47422787  0.21673577  0.11196163  1
  Tl  Tl133  1  0.48504289  0.23450988  0.35354668  1
  Tl  Tl134  1  0.48137682  0.22311424  0.61126580  1
  Tl  Tl135  1  0.48405666  0.23897661  0.85057337  1
  Tl  Tl136  1  0.28540950  0.52440241  0.13929591  1
  Tl  Tl137  1  0.26049868  0.50773213  0.40124498  1
  Tl  Tl138  1  0.28424322  0.52127288  0.63450850  1
  Tl  Tl139  1  0.25362403  0.51729279  0.89881546  1
  Tl  Tl140  1  0.97496223  0.72202760  0.11133973  1
  Tl  Tl141  1  -0.02024015  0.73914727  0.35544831  1
  Tl  Tl142  1  0.97835582  0.72981988  0.61196804  1
  Tl  Tl143  1  -0.02047421  0.74619686  0.84908808  1
  Tl  Tl144  1  0.72676835  0.49323305  0.10098736  1
  Tl  Tl145  1  0.73176117  0.47229226  0.36255056  1
  Tl  Tl146  1  0.73571712  0.49312549  0.60304176  1
  Tl  Tl147  1  0.73057911  0.47149561  0.86390255  1
  Tl  Tl148  1  0.50820337  0.76865889  0.14964961  1
  Tl  Tl149  1  0.52475059  0.77650794  0.38631006  1
  Tl  Tl150  1  0.51014978  0.76767719  0.64792414  1
  Tl  Tl151  1  0.52302042  0.77228337  0.88554976  1
  Tl  Tl152  1  0.22549912  -0.00883384  0.09759669  1
  Tl  Tl153  1  0.23550315  0.97704324  0.35938417  1
  Tl  Tl154  1  0.23899599  0.98611450  0.59895195  1
  Tl  Tl155  1  0.23173867  0.97477307  0.85969706  1
  Tl  Tl156  1  0.77877714  0.02344720  0.14035745  1
  Tl  Tl157  1  0.76021492  0.01434517  0.40111469  1
  Tl  Tl158  1  0.77596454  0.01959898  0.63875886  1
  Tl  Tl159  1  0.75620832  0.01974512  0.89997094  1
