# generated using pymatgen
data_TlHgBr3
_symmetry_space_group_name_H-M   'P 1'
_cell_length_a   15.84494916
_cell_length_b   15.84494916
_cell_length_c   22.40814200
_cell_angle_alpha   90.00000000
_cell_angle_beta   90.00000000
_cell_angle_gamma   90.00000000
_symmetry_Int_Tables_number   1
_chemical_formula_structural   TlHgBr3
_chemical_formula_sum   'Tl32 Hg32 Br96'
_cell_volume   5625.84222257
_cell_formula_units_Z   32
loop_
 _symmetry_equiv_pos_site_id
 _symmetry_equiv_pos_as_xyz
  1  'x, y, z'
loop_
 _atom_site_type_symbol
 _atom_site_label
 _atom_site_symmetry_multiplicity
 _atom_site_fract_x
 _atom_site_fract_y
 _atom_site_fract_z
 _atom_site_occupancy
  Br  Br0  1  0.00458289  0.29514125  0.03503131  1
  Br  Br1  1  0.08445034  0.28158499  0.25438598  1
  Br  Br2  1  0.89859778  0.22783861  0.49506529  1
  Br  Br3  1  0.04329307  0.20079821  0.75063826  1
  Br  Br4  1  0.41213520  0.27263350  0.00264886  1
  Br  Br5  1  0.54435920  0.17795432  0.25219501  1
  Br  Br6  1  0.50020961  0.31697860  0.51445864  1
  Br  Br7  1  0.44496724  0.22054543  0.72711357  1
  Br  Br8  1  0.33934651  0.56864526  0.98931012  1
  Br  Br9  1  0.23051258  0.47487758  0.27024185  1
  Br  Br10  1  0.30288826  0.48087109  0.48799704  1
  Br  Br11  1  0.15998480  0.43943137  0.75562022  1
  Br  Br12  1  0.07255506  0.87537479  0.00751703  1
  Br  Br13  1  0.01307713  0.71291274  0.25694986  1
  Br  Br14  1  0.99599611  0.80161835  0.47211626  1
  Br  Br15  1  0.02920499  0.67728402  0.77154124  1
  Br  Br16  1  0.79563410  0.47400487  0.02598075  1
  Br  Br17  1  0.76951879  0.57688878  0.23975365  1
  Br  Br18  1  0.72391039  0.46821298  0.51875970  1
  Br  Br19  1  0.74180156  0.55454164  0.73327295  1
  Br  Br20  1  0.46103283  0.77372278  0.96735008  1
  Br  Br21  1  0.58812739  0.74710839  0.23799596  1
  Br  Br22  1  0.39326697  0.72509080  0.47490195  1
  Br  Br23  1  0.51964515  0.73659728  0.75049713  1
  Br  Br24  1  0.28331807  -0.00020907  0.99347448  1
  Br  Br25  1  0.28818860  0.08907358  0.27117797  1
  Br  Br26  1  0.20053253  0.93778901  0.49807516  1
  Br  Br27  1  0.23414128  0.00955791  0.70973131  1
  Br  Br28  1  0.81430902  0.04799148  0.00369365  1
  Br  Br29  1  0.71435754  0.99454901  0.21274060  1
  Br  Br30  1  0.78095072  0.97403590  0.49226746  1
  Br  Br31  1  0.64607382  0.96710647  0.75296593  1
  Br  Br32  1  0.16304180  0.14654931  0.12647029  1
  Br  Br33  1  0.10559661  0.15361635  0.39328121  1
  Br  Br34  1  0.05357733  0.08723085  0.59618375  1
  Br  Br35  1  0.05860940  0.11026587  0.92320118  1
  Br  Br36  1  0.62031133  0.15325694  0.06608744  1
  Br  Br37  1  0.64619491  0.16621632  0.41769702  1
  Br  Br38  1  0.58512664  0.10415213  0.60890364  1
  Br  Br39  1  0.53676347  0.10935685  0.86717920  1
  Br  Br40  1  0.45318703  0.38583648  0.14759593  1
  Br  Br41  1  0.38475966  0.31492526  0.35266135  1
  Br  Br42  1  0.36220865  0.42250454  0.64835630  1
  Br  Br43  1  0.41747610  0.39027322  0.84767632  1
  Br  Br44  1  0.13202675  0.66459780  0.11715455  1
  Br  Br45  1  0.15873128  0.65108386  0.38843094  1
  Br  Br46  1  0.08959630  0.57324625  0.60315936  1
  Br  Br47  1  0.13135477  0.66227156  0.92843699  1
  Br  Br48  1  0.96836138  0.46492895  0.16311483  1
  Br  Br49  1  0.87509527  0.34746895  0.32643990  1
  Br  Br50  1  0.87142266  0.33812298  0.65334344  1
  Br  Br51  1  0.92674958  0.37618152  0.86984868  1
  Br  Br52  1  0.60527752  0.59927856  0.08185898  1
  Br  Br53  1  0.62818859  0.68572322  0.41545929  1
  Br  Br54  1  0.55267259  0.61763877  0.60668870  1
  Br  Br55  1  0.59867132  0.59086959  0.88282711  1
  Br  Br56  1  0.43186548  0.85945637  0.11038951  1
  Br  Br57  1  0.38504114  0.84310639  0.31479837  1
  Br  Br58  1  0.42162893  0.90343955  0.60660302  1
  Br  Br59  1  0.36199645  0.89253528  0.82834465  1
  Br  Br60  1  0.94466018  0.91495393  0.16258079  1
  Br  Br61  1  0.81773432  0.80467264  0.34284459  1
  Br  Br62  1  0.85369839  0.85299129  0.71662444  1
  Br  Br63  1  0.87002100  0.82904372  0.89817521  1
  Br  Br64  1  0.88699822  0.16576997  0.16092007  1
  Br  Br65  1  0.88547068  0.06676994  0.33776993  1
  Br  Br66  1  0.81892407  0.09736760  0.65347000  1
  Br  Br67  1  0.82461075  0.11954142  0.83720114  1
  Br  Br68  1  0.41454371  0.09483596  0.11713192  1
  Br  Br69  1  0.39870612  0.06596417  0.42944919  1
  Br  Br70  1  0.31290730  0.16159550  0.57886672  1
  Br  Br71  1  0.27574074  0.15882147  0.84894378  1
  Br  Br72  1  0.19909656  0.39912069  0.10292691  1
  Br  Br73  1  0.08748805  0.40988147  0.42458550  1
  Br  Br74  1  0.12347813  0.33264168  0.58829268  1
  Br  Br75  1  0.16029945  0.40037910  0.92720447  1
  Br  Br76  1  0.88988762  0.67733626  0.07623235  1
  Br  Br77  1  0.88585511  0.57993502  0.40958512  1
  Br  Br78  1  0.87349371  0.64056398  0.59561424  1
  Br  Br79  1  0.84957508  0.58914825  0.87231905  1
  Br  Br80  1  0.70974360  0.34566511  0.16844732  1
  Br  Br81  1  0.62746481  0.42326587  0.35314366  1
  Br  Br82  1  0.61807243  0.36054743  0.67044873  1
  Br  Br83  1  0.66770700  0.33537175  0.89536248  1
  Br  Br84  1  0.37870411  0.62805992  0.16850683  1
  Br  Br85  1  0.42876890  0.58317261  0.33695687  1
  Br  Br86  1  0.30099910  0.67412408  0.64715369  1
  Br  Br87  1  0.33278681  0.61419274  0.81453682  1
  Br  Br88  1  0.19934546  0.88171231  0.16260280  1
  Br  Br89  1  0.14959183  0.90593108  0.33929938  1
  Br  Br90  1  0.08232061  0.84003164  0.63316981  1
  Br  Br91  1  0.10633734  0.91228580  0.84014975  1
  Br  Br92  1  0.68243770  0.84524616  0.07653744  1
  Br  Br93  1  0.60145417  0.94142003  0.35654925  1
  Br  Br94  1  0.66003206  0.83176312  0.60031199  1
  Br  Br95  1  0.64709579  0.88267151  0.91186774  1
  Hg  Hg96  1  0.01095432  0.29090057  0.15155732  1
  Hg  Hg97  1  0.98894072  0.27448789  0.39792527  1
  Hg  Hg98  1  0.98793891  0.23268559  0.62129121  1
  Hg  Hg99  1  0.00199847  0.23667032  0.86745173  1
  Hg  Hg100  1  0.55347060  0.25614970  0.14372076  1
  Hg  Hg101  1  0.50930837  0.22799657  0.38297837  1
  Hg  Hg102  1  0.46886089  0.24207821  0.61378169  1
  Hg  Hg103  1  0.43130602  0.23146679  0.88876548  1
  Hg  Hg104  1  0.30207308  0.52224471  0.10077328  1
  Hg  Hg105  1  0.27073935  0.51576289  0.37866211  1
  Hg  Hg106  1  0.22033744  0.49787358  0.64357562  1
  Hg  Hg107  1  0.25516013  0.49429643  0.86602649  1
  Hg  Hg108  1  0.01497027  0.78793002  0.10365417  1
  Hg  Hg109  1  0.99588897  0.76211451  0.36316782  1
  Hg  Hg110  1  0.96208826  0.73317639  0.66875815  1
  Hg  Hg111  1  0.01498851  0.76528425  0.90521046  1
  Hg  Hg112  1  0.79704586  0.49906273  0.14018141  1
  Hg  Hg113  1  0.76714917  0.49244451  0.36898176  1
  Hg  Hg114  1  0.71288435  0.49979132  0.62925654  1
  Hg  Hg115  1  0.73877813  0.47498228  0.88236447  1
  Hg  Hg116  1  0.54147879  0.73974008  0.11875326  1
  Hg  Hg117  1  0.50002266  0.74676347  0.36020144  1
  Hg  Hg118  1  0.43922093  0.73792780  0.59075487  1
  Hg  Hg119  1  0.47885996  0.74456260  0.85867691  1
  Hg  Hg120  1  0.28114262  0.01896181  0.15285269  1
  Hg  Hg121  1  0.28280211  0.98409807  0.37573530  1
  Hg  Hg122  1  0.24988929  0.99814394  0.59675193  1
  Hg  Hg123  1  0.24340011  0.99382651  0.87893000  1
  Hg  Hg124  1  0.75532341  0.00861990  0.10441226  1
  Hg  Hg125  1  0.76348607  0.96467618  0.36929501  1
  Hg  Hg126  1  0.73881213  0.95924894  0.64113656  1
  Hg  Hg127  1  0.73234486  -0.00093139  0.86588999  1
  Tl  Tl128  1  0.00519017  0.05658986  0.06117754  1
  Tl  Tl129  1  0.07552310  0.06924441  0.25662549  1
  Tl  Tl130  1  0.98042142  0.02532601  0.46834417  1
  Tl  Tl131  1  0.00542106  0.00009609  0.72367982  1
  Tl  Tl132  1  0.48824348  0.98879767  0.99758897  1
  Tl  Tl133  1  0.50652448  0.97555638  0.22901926  1
  Tl  Tl134  1  0.56294883  0.96999588  0.50328526  1
  Tl  Tl135  1  0.45041480  0.01257819  0.73110138  1
  Tl  Tl136  1  0.21618678  0.22166532  0.99480786  1
  Tl  Tl137  1  0.28811863  0.28176939  0.21400491  1
  Tl  Tl138  1  0.24252956  0.28055426  0.47167755  1
  Tl  Tl139  1  0.23463911  0.25330472  0.70625325  1
  Tl  Tl140  1  0.02885916  0.51808334  0.02950617  1
  Tl  Tl141  1  0.03035966  0.50350202  0.30198660  1
  Tl  Tl142  1  0.95803149  0.44934635  0.53455273  1
  Tl  Tl143  1  0.96465411  0.48634066  0.74775431  1
  Tl  Tl144  1  0.79380080  0.26328513  0.04274772  1
  Tl  Tl145  1  0.75227558  0.19904892  0.27104314  1
  Tl  Tl146  1  0.70412818  0.25538933  0.55343096  1
  Tl  Tl147  1  0.65948638  0.17997171  0.74336602  1
  Tl  Tl148  1  0.50730156  0.45579476  0.97553092  1
  Tl  Tl149  1  0.55632901  0.53438363  0.22769671  1
  Tl  Tl150  1  0.50554306  0.53469570  0.47256512  1
  Tl  Tl151  1  0.50341419  0.51702936  0.74115039  1
  Tl  Tl152  1  0.25664940  0.78146181  0.03044992  1
  Tl  Tl153  1  0.22915746  0.71552114  0.25738187  1
  Tl  Tl154  1  0.19160843  0.72566025  0.52447510  1
  Tl  Tl155  1  0.20989802  0.78739327  0.74870513  1
  Tl  Tl156  1  0.73661776  0.69955391  0.98368479  1
  Tl  Tl157  1  0.78843845  0.78035727  0.19796445  1
  Tl  Tl158  1  0.78793446  0.76471818  0.49160370  1
  Tl  Tl159  1  0.72224430  0.74726906  0.79547955  1
