# generated using pymatgen
data_TlHgI3
_symmetry_space_group_name_H-M   'P 1'
_cell_length_a   16.94884184
_cell_length_b   16.94884184
_cell_length_c   23.96928200
_cell_angle_alpha   90.00000000
_cell_angle_beta   90.00000000
_cell_angle_gamma   90.00000000
_symmetry_Int_Tables_number   1
_chemical_formula_structural   TlHgI3
_chemical_formula_sum   'Tl32 Hg32 I96'
_cell_volume   6885.49360295
_cell_formula_units_Z   32
loop_
 _symmetry_equiv_pos_site_id
 _symmetry_equiv_pos_as_xyz
  1  'x, y, z'
loop_
 _atom_site_type_symbol
 _atom_site_label
 _atom_site_symmetry_multiplicity
 _atom_site_fract_x
 _atom_site_fract_y
 _atom_site_fract_z
 _atom_site_occupancy
  Hg  Hg0  1  0.96240056  0.04035160  0.88273461  1
  Hg  Hg1  1  0.02617072  0.96348034  0.23390985  1
  Hg  Hg2  1  0.99031921  0.05561757  0.51942886  1
  Hg  Hg3  1  0.02265036  0.94156111  0.70197362  1
  Hg  Hg4  1  0.49988830  -0.00031819  0.03506050  1
  Hg  Hg5  1  0.51062499  0.99000526  0.25558444  1
  Hg  Hg6  1  0.61223363  0.09007061  0.48575362  1
  Hg  Hg7  1  0.49110824  0.03146075  0.77856724  1
  Hg  Hg8  1  0.22336635  0.29001386  0.02110006  1
  Hg  Hg9  1  0.26901783  0.29651383  0.30294659  1
  Hg  Hg10  1  0.28158710  0.28341348  0.52221786  1
  Hg  Hg11  1  0.25729793  0.26541993  0.76744592  1
  Hg  Hg12  1  0.95740363  0.40052006  0.04825848  1
  Hg  Hg13  1  0.00802177  0.53130232  0.22379209  1
  Hg  Hg14  1  0.92011540  0.52683605  0.52585859  1
  Hg  Hg15  1  0.01295244  0.44564959  0.76260353  1
  Hg  Hg16  1  0.74033629  0.23240995  0.04145882  1
  Hg  Hg17  1  0.77656818  0.24056466  0.24856781  1
  Hg  Hg18  1  0.70917599  0.29387391  0.42908624  1
  Hg  Hg19  1  0.76618463  0.28518625  0.75226013  1
  Hg  Hg20  1  0.51337242  0.53628691  0.99276300  1
  Hg  Hg21  1  0.44026620  0.47356764  0.28287532  1
  Hg  Hg22  1  0.45926964  0.55638960  0.51633928  1
  Hg  Hg23  1  0.48740847  0.50790457  0.71043854  1
  Hg  Hg24  1  0.16840478  0.77582780  0.99282335  1
  Hg  Hg25  1  0.20790545  0.74611770  0.23690110  1
  Hg  Hg26  1  0.24776833  0.79611022  0.52164246  1
  Hg  Hg27  1  0.25246872  0.75449601  0.74148861  1
  Hg  Hg28  1  0.84402126  0.80503316  0.96327807  1
  Hg  Hg29  1  0.70475315  0.79431433  0.26064067  1
  Hg  Hg30  1  0.69043071  0.68786369  0.46083673  1
  Hg  Hg31  1  0.66515177  0.70333329  0.71983358  1
  I  I32  1  0.06667646  0.09540621  0.96183216  1
  I  I33  1  0.16436427  0.06525863  0.24561877  1
  I  I34  1  0.15571251  0.06167442  0.49866707  1
  I  I35  1  0.17472957  0.12211930  0.78092739  1
  I  I36  1  0.66723951  0.14332941  0.95675075  1
  I  I37  1  0.67145747  0.17292407  0.32671805  1
  I  I38  1  0.76566233  0.14048256  0.48852745  1
  I  I39  1  0.61967368  0.14434648  0.77389417  1
  I  I40  1  0.33835676  0.40623195  0.04355958  1
  I  I41  1  0.34430499  0.35565827  0.20790972  1
  I  I42  1  0.40876503  0.41343966  0.56909655  1
  I  I43  1  0.41835525  0.28715900  0.77476920  1
  I  I44  1  0.15900532  0.61534205  0.02868656  1
  I  I45  1  0.17494442  0.56954444  0.22983920  1
  I  I46  1  0.06110975  0.58768906  0.49270007  1
  I  I47  1  0.12356874  0.66589942  0.75944826  1
  I  I48  1  0.90768159  0.23823928  0.04340540  1
  I  I49  1  0.81139131  0.38301462  0.19933934  1
  I  I50  1  0.83356175  0.40199123  0.55999741  1
  I  I51  1  0.96026871  0.28857142  0.75146377  1
  I  I52  1  0.65699577  0.62526819  0.98084267  1
  I  I53  1  0.63269700  0.66798398  0.21275413  1
  I  I54  1  0.61288227  0.53544045  0.45771644  1
  I  I55  1  0.57168330  0.63065154  0.79773353  1
  I  I56  1  0.34783096  0.92267693  0.02091470  1
  I  I57  1  0.36039152  0.91684993  0.28373043  1
  I  I58  1  0.36127907  0.89811222  0.48121569  1
  I  I59  1  0.39807129  0.81129006  0.75395268  1
  I  I60  1  0.98964276  0.73239582  0.93808517  1
  I  I61  1  0.81538240  0.90594977  0.23254817  1
  I  I62  1  0.88627654  0.93480357  0.50178856  1
  I  I63  1  0.90510098  0.83438112  0.67084581  1
  I  I64  1  0.85518931  0.97527859  0.97304839  1
  I  I65  1  0.90924968  0.15344542  0.29255438  1
  I  I66  1  0.96422921  0.21522010  0.48233622  1
  I  I67  1  0.85349536  0.09150491  0.80499074  1
  I  I68  1  0.45422342  0.15411544  0.05373623  1
  I  I69  1  0.45759795  0.14134538  0.22988151  1
  I  I70  1  0.37341083  0.15991927  0.54474721  1
  I  I71  1  0.38868773  0.04767671  0.68981505  1
  I  I72  1  0.09870181  0.39098938  0.97466066  1
  I  I73  1  0.10802391  0.33884693  0.30770574  1
  I  I74  1  0.16588674  0.38111594  0.49011349  1
  I  I75  1  0.17798900  0.40665105  0.80966676  1
  I  I76  1  0.87177051  0.52470645  0.00906038  1
  I  I77  1  0.87690899  0.61581904  0.18592820  1
  I  I78  1  0.82592389  0.67427770  0.53612845  1
  I  I79  1  0.80400641  0.60131521  0.71871205  1
  I  I80  1  0.65230227  0.37207965  0.03086167  1
  I  I81  1  0.58738710  0.40194033  0.27256727  1
  I  I82  1  0.56963006  0.29439689  0.48553616  1
  I  I83  1  0.60692042  0.40549381  0.68992955  1
  I  I84  1  0.39722675  0.66941883  0.99427884  1
  I  I85  1  0.40144147  0.62711803  0.26104077  1
  I  I86  1  0.34598185  0.63002985  0.45106333  1
  I  I87  1  0.33803730  0.54112802  0.73924934  1
  I  I88  1  0.10072466  0.88662015  0.05989624  1
  I  I89  1  0.03949338  0.79036967  0.22182545  1
  I  I90  1  0.09141502  0.82478573  0.49449454  1
  I  I91  1  0.17624403  0.89193276  0.66323783  1
  I  I92  1  0.60695528  0.89390295  0.98682056  1
  I  I93  1  0.60797769  0.90342189  0.32960326  1
  I  I94  1  0.57900863  0.80390353  0.48083947  1
  I  I95  1  0.59208384  0.89493372  0.77457087  1
  I  I96  1  0.95806530  0.02590947  0.13751196  1
  I  I97  1  0.00307029  0.94993561  0.35248311  1
  I  I98  1  0.99310840  0.08855707  0.64689466  1
  I  I99  1  0.04748273  0.91719619  0.82002617  1
  I  I100  1  0.55654590  0.92456512  0.14763825  1
  I  I101  1  0.49227671  0.06130042  0.41399035  1
  I  I102  1  0.58329216  0.02805760  0.59611454  1
  I  I103  1  0.43792649  0.03926599  0.88907032  1
  I  I104  1  0.19104712  0.17497834  0.09955211  1
  I  I105  1  0.29211031  0.16794811  0.37416344  1
  I  I106  1  0.20297306  0.29482912  0.64925647  1
  I  I107  1  0.27805595  0.21900026  0.91916373  1
  I  I108  1  0.05296617  0.40761592  0.14656934  1
  I  I109  1  0.97275770  0.53292447  0.34009983  1
  I  I110  1  0.02943004  0.50506171  0.65202731  1
  I  I111  1  0.96454943  0.53861303  0.84997479  1
  I  I112  1  0.69627477  0.16040832  0.14836497  1
  I  I113  1  0.82789103  0.37670211  0.38396947  1
  I  I114  1  0.76192459  0.22466842  0.64867244  1
  I  I115  1  0.74416561  0.35043613  0.85214778  1
  I  I116  1  0.51358494  0.52254177  0.11249962  1
  I  I117  1  0.35973603  0.41279885  0.38118927  1
  I  I118  1  0.51557571  0.63648103  0.61591067  1
  I  I119  1  0.47594173  0.45190854  0.89789071  1
  I  I120  1  0.29754728  0.78626938  0.14706972  1
  I  I121  1  0.20880543  0.75294299  0.35411071  1
  I  I122  1  0.27602618  0.69087964  0.60950819  1
  I  I123  1  0.24129567  0.79770562  0.88996162  1
  I  I124  1  0.79211806  0.77049669  0.07299987  1
  I  I125  1  0.78717447  0.71950011  0.36366012  1
  I  I126  1  0.68061892  0.80905717  0.63481715  1
  I  I127  1  0.75574844  0.77790184  0.86402813  1
  Tl  Tl128  1  0.03136873  0.20424507  0.18380017  1
  Tl  Tl129  1  0.08220777  0.16008136  0.37523999  1
  Tl  Tl130  1  0.00542328  0.30269096  0.61186393  1
  Tl  Tl131  1  0.07924046  0.25207020  0.87230804  1
  Tl  Tl132  1  0.53824998  0.29998016  0.14194572  1
  Tl  Tl133  1  0.48522158  0.24790334  0.35405718  1
  Tl  Tl134  1  0.51148555  0.20786671  0.65735344  1
  Tl  Tl135  1  0.48638822  0.23983360  0.91838603  1
  Tl  Tl136  1  0.31583239  0.58623149  0.11950673  1
  Tl  Tl137  1  0.17827567  0.51496392  0.37151961  1
  Tl  Tl138  1  0.23132444  0.48915901  0.61570468  1
  Tl  Tl139  1  0.28215299  0.51651641  0.93202935  1
  Tl  Tl140  1  0.99139405  0.71518158  0.08347444  1
  Tl  Tl141  1  0.00436258  0.74282518  0.37144057  1
  Tl  Tl142  1  0.06570561  0.72198333  0.62043392  1
  Tl  Tl143  1  0.93293300  0.73424860  0.79781241  1
  Tl  Tl144  1  0.72312644  0.53253372  0.10220585  1
  Tl  Tl145  1  0.76344235  0.52844234  0.29496285  1
  Tl  Tl146  1  0.69738663  0.54000917  0.60137221  1
  Tl  Tl147  1  0.75623490  0.55797302  0.85635867  1
  Tl  Tl148  1  0.55746120  0.73374856  0.07951372  1
  Tl  Tl149  1  0.43824297  0.77440825  0.37139165  1
  Tl  Tl150  1  0.48321407  0.84923281  0.61076835  1
  Tl  Tl151  1  0.43997325  0.82929953  0.90555150  1
  Tl  Tl152  1  0.31741262  0.02033251  0.15229833  1
  Tl  Tl153  1  0.21626092  0.96244522  0.37716243  1
  Tl  Tl154  1  0.20519805  0.09176407  0.63656796  1
  Tl  Tl155  1  0.23505794  0.01525374  0.90494099  1
  Tl  Tl156  1  0.75492462  0.96782564  0.10367804  1
  Tl  Tl157  1  0.80766146  0.01049076  0.36656651  1
  Tl  Tl158  1  0.72769069  0.00439120  0.69353163  1
  Tl  Tl159  1  0.70571375  0.99009624  0.87516225  1
