# generated using pymatgen
data_TlHgF3
_symmetry_space_group_name_H-M   'P 1'
_cell_length_a   13.01248870
_cell_length_b   13.01248870
_cell_length_c   18.40243800
_cell_angle_alpha   90.00000000
_cell_angle_beta   90.00000000
_cell_angle_gamma   90.00000000
_symmetry_Int_Tables_number   1
_chemical_formula_structural   TlHgF3
_chemical_formula_sum   'Tl32 Hg32 F96'
_cell_volume   3115.99027798
_cell_formula_units_Z   32
loop_
 _symmetry_equiv_pos_site_id
 _symmetry_equiv_pos_as_xyz
  1  'x, y, z'
loop_
 _atom_site_type_symbol
 _atom_site_label
 _atom_site_symmetry_multiplicity
 _atom_site_fract_x
 _atom_site_fract_y
 _atom_site_fract_z
 _atom_site_occupancy
  F  F0  1  0.11943822  0.14080788  0.03235069  1
  F  F1  1  0.12551680  0.13206476  0.21728120  1
  F  F2  1  0.11485454  0.14020942  0.52290725  1
  F  F3  1  0.11616664  0.13821656  0.72056628  1
  F  F4  1  0.59391185  0.15072898  0.00204224  1
  F  F5  1  0.59877304  0.15311293  0.24883259  1
  F  F6  1  0.61574792  0.13360799  0.46982942  1
  F  F7  1  0.58569123  0.14739762  0.75782409  1
  F  F8  1  0.38239301  0.35992494  0.97005349  1
  F  F9  1  0.37420319  0.36811151  0.28162215  1
  F  F10  1  0.38394404  0.36171145  0.46708486  1
  F  F11  1  0.40470038  0.33646409  0.76709697  1
  F  F12  1  0.11093038  0.63267277  0.97003715  1
  F  F13  1  0.08992478  0.64990375  0.26074626  1
  F  F14  1  0.09884032  0.64148375  0.50200182  1
  F  F15  1  0.08919861  0.65056412  0.74640678  1
  F  F16  1  0.91342628  0.34973616  0.00709212  1
  F  F17  1  0.88282234  0.37505690  0.22464684  1
  F  F18  1  0.89797412  0.35082131  0.51247592  1
  F  F19  1  0.91208687  0.34521719  0.74951754  1
  F  F20  1  0.60607303  0.65337102  0.02168455  1
  F  F21  1  0.61581234  0.64109091  0.22048799  1
  F  F22  1  0.62064295  0.64120407  0.53385093  1
  F  F23  1  0.61692316  0.63694735  0.71285490  1
  F  F24  1  0.40497722  0.85052460  0.00958066  1
  F  F25  1  0.41105125  0.84600947  0.25327254  1
  F  F26  1  0.40939107  0.85091065  0.49906457  1
  F  F27  1  0.41353153  0.84701439  0.74824847  1
  F  F28  1  0.88185019  0.85954438  0.96690449  1
  F  F29  1  0.90654293  0.84257745  0.26965434  1
  F  F30  1  0.88238325  0.86326560  0.47428752  1
  F  F31  1  0.87740445  0.86785979  0.78414744  1
  F  F32  1  0.85876270  0.08974567  -0.00145760  1
  F  F33  1  0.86732112  0.12998783  0.23250357  1
  F  F34  1  0.86491159  0.09831479  0.50554223  1
  F  F35  1  0.83532929  0.10521405  0.75207190  1
  F  F36  1  0.36414013  0.11594680  0.96484080  1
  F  F37  1  0.36548129  0.11681838  0.28171157  1
  F  F38  1  0.36704173  0.11743795  0.46374847  1
  F  F39  1  0.33978574  0.09485299  0.76314702  1
  F  F40  1  0.15618264  0.40656602  0.01529054  1
  F  F41  1  0.12655313  0.38010161  0.21325625  1
  F  F42  1  0.13568257  0.38479623  0.52522568  1
  F  F43  1  0.14306774  0.38900902  0.71668000  1
  F  F44  1  0.86039905  0.61412733  0.96247136  1
  F  F45  1  0.84154807  0.60012063  0.26376584  1
  F  F46  1  0.86632941  0.61830565  0.46654498  1
  F  F47  1  0.85244748  0.61091083  0.77704256  1
  F  F48  1  0.63390320  0.40687142  0.98860554  1
  F  F49  1  0.65575481  0.39896379  0.25596752  1
  F  F50  1  0.64631686  0.41007999  0.50073049  1
  F  F51  1  0.66367516  0.39156172  0.74517216  1
  F  F52  1  0.35699163  0.58995330  0.00271975  1
  F  F53  1  0.33563531  0.60601224  0.24725730  1
  F  F54  1  0.36522286  0.58807201  0.50644502  1
  F  F55  1  0.33554408  0.60703308  0.74548233  1
  F  F56  1  0.14242029  0.91163653  0.00216977  1
  F  F57  1  0.16358069  0.89457885  0.24527899  1
  F  F58  1  0.12537336  0.88696771  0.47930401  1
  F  F59  1  0.16417625  0.89526737  0.75382790  1
  F  F60  1  0.64489665  0.89575043  0.02648096  1
  F  F61  1  0.64437621  0.89475371  0.22046443  1
  F  F62  1  0.65381028  0.90492302  0.51686789  1
  F  F63  1  0.63867054  0.88528707  0.71138873  1
  F  F64  1  0.97658669  0.96690567  0.13355831  1
  F  F65  1  0.02090119  0.03799474  0.36640343  1
  F  F66  1  0.97318101  0.96768358  0.63572420  1
  F  F67  1  0.03316028  0.03120541  0.86705341  1
  F  F68  1  0.46771479  0.03431254  0.12769388  1
  F  F69  1  0.53073970  0.96627965  0.37428708  1
  F  F70  1  0.46719208  0.03535341  0.62353131  1
  F  F71  1  0.52930705  0.96307832  0.87748709  1
  F  F72  1  0.29858949  0.22883762  0.12570818  1
  F  F73  1  0.20100289  0.23165194  0.37384861  1
  F  F74  1  0.28957105  0.22924723  0.62489293  1
  F  F75  1  0.19965594  0.27367641  0.87538925  1
  F  F76  1  0.96745940  0.54763387  0.12313338  1
  F  F77  1  0.98196187  0.45743509  0.37374901  1
  F  F78  1  0.96635836  0.53442191  0.62592722  1
  F  F79  1  0.02299040  0.46375733  0.87391775  1
  F  F80  1  0.72871360  0.25280132  0.11750741  1
  F  F81  1  0.78097938  0.27265193  0.38103748  1
  F  F82  1  0.71641279  0.21482765  0.61792468  1
  F  F83  1  0.76815230  0.27356463  0.88446898  1
  F  F84  1  0.46945378  0.46809719  0.13333843  1
  F  F85  1  0.49049624  0.53589440  0.36730854  1
  F  F86  1  0.46222724  0.46727773  0.63652463  1
  F  F87  1  0.53139147  0.53358874  0.86223844  1
  F  F88  1  0.22414055  0.71622021  0.11631978  1
  F  F89  1  0.27326747  0.73002464  0.38319227  1
  F  F90  1  0.23680347  0.74017770  0.61752730  1
  F  F91  1  0.27066285  0.78218196  0.88465567  1
  F  F92  1  0.79359053  0.76705372  0.12612672  1
  F  F93  1  0.70533925  0.77586396  0.37549432  1
  F  F94  1  0.80010442  0.72891496  0.62553699  1
  F  F95  1  0.70025097  0.77284793  0.87352500  1
  Hg  Hg96  1  0.00018802  0.00001122  -0.00035060  1
  Hg  Hg97  1  0.99923950  0.00024834  0.25121408  1
  Hg  Hg98  1  0.00288791  0.99867147  0.50285969  1
  Hg  Hg99  1  0.99906358  0.00012173  0.75192180  1
  Hg  Hg100  1  0.49796614  0.00117161  0.00188692  1
  Hg  Hg101  1  0.50022915  0.00094107  0.25103575  1
  Hg  Hg102  1  0.49859793  0.00439498  0.50142170  1
  Hg  Hg103  1  0.50026111  -0.00230019  0.75216441  1
  Hg  Hg104  1  0.24950229  0.25039884  0.00117330  1
  Hg  Hg105  1  0.24814483  0.25476223  0.24930839  1
  Hg  Hg106  1  0.25313404  0.25183918  0.49941740  1
  Hg  Hg107  1  0.24862924  0.25377100  0.75444855  1
  Hg  Hg108  1  0.99768683  0.50371778  0.00280909  1
  Hg  Hg109  1  0.00285729  0.50147303  0.24977777  1
  Hg  Hg110  1  -0.00239358  0.49821057  0.50016773  1
  Hg  Hg111  1  0.99847827  0.49888179  0.74992483  1
  Hg  Hg112  1  0.75190732  0.25326541  0.00123297  1
  Hg  Hg113  1  0.74941447  0.25100091  0.25215312  1
  Hg  Hg114  1  0.74698875  0.24981354  0.50137647  1
  Hg  Hg115  1  0.75012020  0.24863763  0.74862706  1
  Hg  Hg116  1  0.49971676  0.50275492  0.00082421  1
  Hg  Hg117  1  0.50108351  0.50307220  0.24897738  1
  Hg  Hg118  1  0.50600101  0.49829068  0.50296134  1
  Hg  Hg119  1  0.49597117  0.50045411  0.75021986  1
  Hg  Hg120  1  0.24661957  0.75159921  0.00136014  1
  Hg  Hg121  1  0.25116364  0.75212665  0.24919213  1
  Hg  Hg122  1  0.25420965  0.75155581  0.50024997  1
  Hg  Hg123  1  0.24973441  0.75050022  0.75294171  1
  Hg  Hg124  1  0.75108282  0.74711459  0.00089319  1
  Hg  Hg125  1  0.74976784  0.75509270  0.25360376  1
  Hg  Hg126  1  0.75039436  0.74988428  0.50084086  1
  Hg  Hg127  1  0.74752594  0.75230267  0.74974441  1
  Tl  Tl128  1  0.99743772  0.25254524  0.13466369  1
  Tl  Tl129  1  0.99385540  0.24919515  0.39714590  1
  Tl  Tl130  1  0.02355313  0.26989239  0.62698834  1
  Tl  Tl131  1  0.98833351  0.26325323  0.87822060  1
  Tl  Tl132  1  0.51134183  0.23757195  0.12594119  1
  Tl  Tl133  1  0.48486563  0.23499715  0.37191554  1
  Tl  Tl134  1  0.49643480  0.24689805  0.64623487  1
  Tl  Tl135  1  0.49364427  0.23871462  0.88579421  1
  Tl  Tl136  1  0.26151495  0.50622939  0.12553597  1
  Tl  Tl137  1  0.28756308  0.50545039  0.37760947  1
  Tl  Tl138  1  0.25451195  0.51442956  0.62518091  1
  Tl  Tl139  1  0.23360085  0.48578424  0.89572017  1
  Tl  Tl140  1  -0.00124972  0.75305733  0.14694894  1
  Tl  Tl141  1  0.00155315  0.74729147  0.38856334  1
  Tl  Tl142  1  0.01089952  0.73578815  0.62412259  1
  Tl  Tl143  1  0.97919729  0.72745349  0.87265060  1
  Tl  Tl144  1  0.75891545  0.50631366  0.14931277  1
  Tl  Tl145  1  0.76928053  0.48668543  0.37514045  1
  Tl  Tl146  1  0.74680973  0.52899248  0.62899224  1
  Tl  Tl147  1  0.73845463  0.49164730  0.87249086  1
  Tl  Tl148  1  0.52375481  0.77377362  0.12586584  1
  Tl  Tl149  1  0.49156674  0.76412519  0.37584356  1
  Tl  Tl150  1  0.51210596  0.76848296  0.62881307  1
  Tl  Tl151  1  0.49217226  0.76214976  0.88477237  1
  Tl  Tl152  1  0.24157246  0.02761913  0.12425936  1
  Tl  Tl153  1  0.23459699  0.02402932  0.37218087  1
  Tl  Tl154  1  0.25218887  0.02871154  0.64130245  1
  Tl  Tl155  1  0.23934903  0.99370307  0.87545918  1
  Tl  Tl156  1  0.76459873  0.99121785  0.12328585  1
  Tl  Tl157  1  0.73648071  0.98557573  0.39693828  1
  Tl  Tl158  1  0.76379458  0.00798493  0.62625981  1
  Tl  Tl159  1  0.75505190  0.97220384  0.88109664  1
