# generated using pymatgen
data_TlHgCl3
_symmetry_space_group_name_H-M   'P 1'
_cell_length_a   15.06543040
_cell_length_b   15.06543040
_cell_length_c   21.30573500
_cell_angle_alpha   90.00000000
_cell_angle_beta   90.00000000
_cell_angle_gamma   90.00000000
_symmetry_Int_Tables_number   1
_chemical_formula_structural   TlHgCl3
_chemical_formula_sum   'Tl32 Hg32 Cl96'
_cell_volume   4835.70287310
_cell_formula_units_Z   32
loop_
 _symmetry_equiv_pos_site_id
 _symmetry_equiv_pos_as_xyz
  1  'x, y, z'
loop_
 _atom_site_type_symbol
 _atom_site_label
 _atom_site_symmetry_multiplicity
 _atom_site_fract_x
 _atom_site_fract_y
 _atom_site_fract_z
 _atom_site_occupancy
  Cl  Cl0  1  0.07274274  0.15056866  0.02779438  1
  Cl  Cl1  1  0.12371064  0.07303143  0.23560510  1
  Cl  Cl2  1  0.17299047  0.07035545  0.46310178  1
  Cl  Cl3  1  0.16320054  0.08595251  0.72677003  1
  Cl  Cl4  1  0.61729870  0.18017541  0.04887657  1
  Cl  Cl5  1  0.60788481  0.14179618  0.22409491  1
  Cl  Cl6  1  0.66017024  0.09748246  0.53671127  1
  Cl  Cl7  1  0.63624027  0.06980829  0.72899073  1
  Cl  Cl8  1  0.40838545  0.32688101  0.00393860  1
  Cl  Cl9  1  0.41189689  0.36514656  0.27307522  1
  Cl  Cl10  1  0.34793093  0.38724210  0.50146997  1
  Cl  Cl11  1  0.34372410  0.41446854  0.82641502  1
  Cl  Cl12  1  0.11715370  0.65357248  0.00648569  1
  Cl  Cl13  1  0.08236833  0.65597427  0.18000440  1
  Cl  Cl14  1  0.13375579  0.57495928  0.50681201  1
  Cl  Cl15  1  0.13158366  0.58002644  0.72561429  1
  Cl  Cl16  1  0.85578270  0.34849594  0.93369082  1
  Cl  Cl17  1  0.88396350  0.39742346  0.28565130  1
  Cl  Cl18  1  0.85888157  0.42183042  0.46364587  1
  Cl  Cl19  1  0.84873664  0.43650903  0.75138215  1
  Cl  Cl20  1  0.59449373  0.65689361  0.99642650  1
  Cl  Cl21  1  0.53239752  0.65733742  0.25570171  1
  Cl  Cl22  1  0.64358376  0.63707418  0.52124534  1
  Cl  Cl23  1  0.63979956  0.59303620  0.69268257  1
  Cl  Cl24  1  0.38040938  0.84253548  0.99891356  1
  Cl  Cl25  1  0.43857740  0.88519253  0.26141711  1
  Cl  Cl26  1  0.35475558  0.90488872  0.46892954  1
  Cl  Cl27  1  0.38024395  0.91505928  0.79682617  1
  Cl  Cl28  1  0.91267611  0.86977668  0.97124250  1
  Cl  Cl29  1  0.94196213  0.81366847  0.26052621  1
  Cl  Cl30  1  0.84312438  0.88735574  0.48259201  1
  Cl  Cl31  1  0.89914080  0.92534656  0.75039983  1
  Cl  Cl32  1  0.83694824  0.09194003  0.99684432  1
  Cl  Cl33  1  0.84956187  0.15042814  0.24094202  1
  Cl  Cl34  1  0.92132509  0.15208085  0.50783179  1
  Cl  Cl35  1  0.89234782  0.17236742  0.76870310  1
  Cl  Cl36  1  0.32551006  0.07823747  0.04691806  1
  Cl  Cl37  1  0.35972287  0.14013253  0.21653064  1
  Cl  Cl38  1  0.41638715  0.14474962  0.53018624  1
  Cl  Cl39  1  0.39697811  0.18702019  0.74990969  1
  Cl  Cl40  1  0.10455457  0.39822626  0.97547910  1
  Cl  Cl41  1  0.12235507  0.32489513  0.27809739  1
  Cl  Cl42  1  0.09564567  0.33841243  0.45368538  1
  Cl  Cl43  1  0.11674541  0.32588449  0.76388847  1
  Cl  Cl44  1  0.85999130  0.58310199  0.02406397  1
  Cl  Cl45  1  0.79856125  0.61729759  0.22157348  1
  Cl  Cl46  1  0.89163637  0.64447706  0.53024765  1
  Cl  Cl47  1  0.89058957  0.68534066  0.72383892  1
  Cl  Cl48  1  0.62823403  0.41686309  0.97942583  1
  Cl  Cl49  1  0.64491815  0.38912519  0.23105711  1
  Cl  Cl50  1  0.60591988  0.38302585  0.53764640  1
  Cl  Cl51  1  0.63066871  0.34181133  0.75160064  1
  Cl  Cl52  1  0.35300183  0.58257083  0.97485924  1
  Cl  Cl53  1  0.27577122  0.55099531  0.25055858  1
  Cl  Cl54  1  0.40305602  0.62378299  0.54511510  1
  Cl  Cl55  1  0.39086439  0.67527723  0.73660873  1
  Cl  Cl56  1  0.14024044  0.89857262  0.04881234  1
  Cl  Cl57  1  0.19170655  0.85397430  0.28397914  1
  Cl  Cl58  1  0.09031372  0.82598738  0.45970063  1
  Cl  Cl59  1  0.11983054  0.83028174  0.73100527  1
  Cl  Cl60  1  0.62222846  0.90719804  0.93999699  1
  Cl  Cl61  1  0.70328769  0.91232910  0.25779445  1
  Cl  Cl62  1  0.59721916  0.87956200  0.47502638  1
  Cl  Cl63  1  0.60817557  0.81389084  0.77528140  1
  Cl  Cl64  1  0.94269841  0.97863528  0.13452660  1
  Cl  Cl65  1  0.95327117  0.01838566  0.36800751  1
  Cl  Cl66  1  0.02451386  0.97349303  0.59378134  1
  Cl  Cl67  1  0.05368024  0.01617820  0.88165632  1
  Cl  Cl68  1  0.53111138  0.96201790  0.10623535  1
  Cl  Cl69  1  0.51395358  0.07020328  0.37901929  1
  Cl  Cl70  1  0.45396826  0.94778835  0.63012368  1
  Cl  Cl71  1  0.46176234  0.08067414  0.90452653  1
  Cl  Cl72  1  0.21951385  0.30549521  0.11824058  1
  Cl  Cl73  1  0.30326745  0.22544328  0.38058936  1
  Cl  Cl74  1  0.21162515  0.23908820  0.60329798  1
  Cl  Cl75  1  0.23495671  0.20543369  0.90270146  1
  Cl  Cl76  1  0.01941886  0.44219764  0.13535639  1
  Cl  Cl77  1  0.04886957  0.55980787  0.34432028  1
  Cl  Cl78  1  0.00687258  0.42594779  0.61890156  1
  Cl  Cl79  1  0.98140416  0.56049412  0.86981331  1
  Cl  Cl80  1  0.81254082  0.32355340  0.10380991  1
  Cl  Cl81  1  0.72726257  0.24683857  0.39834781  1
  Cl  Cl82  1  0.78493224  0.27616291  0.61959646  1
  Cl  Cl83  1  0.68592935  0.18402041  0.88165732  1
  Cl  Cl84  1  0.48574210  0.50464447  0.12349231  1
  Cl  Cl85  1  0.52385304  0.50328370  0.39295115  1
  Cl  Cl86  1  0.43324450  0.42563142  0.66164621  1
  Cl  Cl87  1  0.54693399  0.55105965  0.84895849  1
  Cl  Cl88  1  0.30479728  0.73076928  0.13457990  1
  Cl  Cl89  1  0.29627492  0.67712543  0.38870965  1
  Cl  Cl90  1  0.23984457  0.78061344  0.59570714  1
  Cl  Cl91  1  0.22607749  0.75425360  0.87390830  1
  Cl  Cl92  1  0.74139545  0.80184085  0.09674467  1
  Cl  Cl93  1  0.72727796  0.71332470  0.37503932  1
  Cl  Cl94  1  0.72559349  0.83577117  0.62899093  1
  Cl  Cl95  1  0.78677691  0.72938035  0.88052907  1
  Hg  Hg96  1  0.99971738  0.00231659  0.01129448  1
  Hg  Hg97  1  0.01931064  0.95349072  0.25182442  1
  Hg  Hg98  1  0.01625142  0.99231575  0.47599987  1
  Hg  Hg99  1  0.03515972  0.00478968  0.75403608  1
  Hg  Hg100  1  0.50740764  0.03172719  0.00619035  1
  Hg  Hg101  1  0.52545370  0.01538265  0.25484335  1
  Hg  Hg102  1  0.50045137  0.00426824  0.51012213  1
  Hg  Hg103  1  0.50689132  0.98427969  0.75056423  1
  Hg  Hg104  1  0.25904310  0.23253082  0.01760272  1
  Hg  Hg105  1  0.24570042  0.23874223  0.24755066  1
  Hg  Hg106  1  0.23405179  0.23730163  0.48808263  1
  Hg  Hg107  1  0.26697725  0.27390796  0.77067025  1
  Hg  Hg108  1  0.97502306  0.48483610  0.99296364  1
  Hg  Hg109  1  0.01664904  0.50646883  0.23964408  1
  Hg  Hg110  1  0.99794916  0.48645122  0.49932410  1
  Hg  Hg111  1  0.98947913  0.51078099  0.74257783  1
  Hg  Hg112  1  0.75226980  0.24817455  0.99554546  1
  Hg  Hg113  1  0.76877143  0.28664658  0.22632871  1
  Hg  Hg114  1  0.76553852  0.24598579  0.50863167  1
  Hg  Hg115  1  0.75633406  0.25192845  0.77623659  1
  Hg  Hg116  1  0.48609269  0.49545465  0.99461558  1
  Hg  Hg117  1  0.46683546  0.51331282  0.25987359  1
  Hg  Hg118  1  0.49185619  0.49520845  0.52113804  1
  Hg  Hg119  1  0.48617134  0.49393783  0.75447707  1
  Hg  Hg120  1  0.24121605  0.75851934  0.00912585  1
  Hg  Hg121  1  0.22050883  0.70430699  0.25045645  1
  Hg  Hg122  1  0.25685348  0.75385067  0.48377166  1
  Hg  Hg123  1  0.25809145  0.75751269  0.74837395  1
  Hg  Hg124  1  0.72499191  0.78016682  0.98269504  1
  Hg  Hg125  1  0.74917453  0.76105226  0.25278207  1
  Hg  Hg126  1  0.75072204  0.75964263  0.51529492  1
  Hg  Hg127  1  0.73570453  0.72880979  0.73519111  1
  Tl  Tl128  1  0.00670739  0.23267146  0.15193448  1
  Tl  Tl129  1  0.95436880  0.23852748  0.37310388  1
  Tl  Tl130  1  0.00895759  0.22532655  0.63514341  1
  Tl  Tl131  1  0.02767366  0.22439300  0.89208371  1
  Tl  Tl132  1  0.48777846  0.28977527  0.13842914  1
  Tl  Tl133  1  0.49846930  0.27501247  0.41298149  1
  Tl  Tl134  1  0.54288275  0.22727423  0.63533798  1
  Tl  Tl135  1  0.49857063  0.28086335  0.87729840  1
  Tl  Tl136  1  0.22203769  0.52813256  0.10318726  1
  Tl  Tl137  1  0.23447797  0.46620485  0.38972643  1
  Tl  Tl138  1  0.22192784  0.45472967  0.61345639  1
  Tl  Tl139  1  0.19547253  0.54207815  0.87705467  1
  Tl  Tl140  1  0.95877254  0.77255103  0.09831327  1
  Tl  Tl141  1  0.94064992  0.72696029  0.39681432  1
  Tl  Tl142  1  0.03086667  0.76312005  0.59938028  1
  Tl  Tl143  1  0.99694086  0.76623182  0.85598487  1
  Tl  Tl144  1  0.69902664  0.50779090  0.10733007  1
  Tl  Tl145  1  0.72829402  0.50485930  0.35529597  1
  Tl  Tl146  1  0.77345930  0.49513523  0.60614549  1
  Tl  Tl147  1  0.76257679  0.52243612  0.87962076  1
  Tl  Tl148  1  0.50511557  0.74534406  0.11325493  1
  Tl  Tl149  1  0.51431139  0.71246626  0.40444760  1
  Tl  Tl150  1  0.52862288  0.75107970  0.62779655  1
  Tl  Tl151  1  0.47638101  0.74824815  0.88431040  1
  Tl  Tl152  1  0.27835700  0.94640181  0.15228480  1
  Tl  Tl153  1  0.30612372  0.01256745  0.35633100  1
  Tl  Tl154  1  0.25731297  0.00163265  0.59207215  1
  Tl  Tl155  1  0.26007306  0.99380855  0.91799217  1
  Tl  Tl156  1  0.74249784  0.02490873  0.12425963  1
  Tl  Tl157  1  0.71822806  0.02083483  0.40188278  1
  Tl  Tl158  1  0.81176170  0.01749148  0.61864553  1
  Tl  Tl159  1  0.77936507  0.99930839  0.87406880  1
