# generated using pymatgen
data_TlInCl3
_symmetry_space_group_name_H-M   'P 1'
_cell_length_a   15.31031138
_cell_length_b   15.31031138
_cell_length_c   21.65205000
_cell_angle_alpha   90.00000000
_cell_angle_beta   90.00000000
_cell_angle_gamma   90.00000000
_symmetry_Int_Tables_number   1
_chemical_formula_structural   TlInCl3
_chemical_formula_sum   'Tl32 In32 Cl96'
_cell_volume   5075.36252067
_cell_formula_units_Z   32
loop_
 _symmetry_equiv_pos_site_id
 _symmetry_equiv_pos_as_xyz
  1  'x, y, z'
loop_
 _atom_site_type_symbol
 _atom_site_label
 _atom_site_symmetry_multiplicity
 _atom_site_fract_x
 _atom_site_fract_y
 _atom_site_fract_z
 _atom_site_occupancy
  Tl  Tl0  1  0.02182711  0.98323434  0.03766452  1
  Tl  Tl1  1  0.03548359  0.02946713  0.27912299  1
  Tl  Tl2  1  0.99556170  0.03497944  0.53605870  1
  Tl  Tl3  1  0.01585172  0.02969328  0.75859992  1
  Tl  Tl4  1  0.49498831  0.94015798  0.96867884  1
  Tl  Tl5  1  0.50716392  0.99076024  0.22309895  1
  Tl  Tl6  1  0.48984640  0.00485953  0.47499420  1
  Tl  Tl7  1  0.48693873  0.95804835  0.71926740  1
  Tl  Tl8  1  0.29195515  0.29189953  0.99838524  1
  Tl  Tl9  1  0.25620546  0.28057745  0.22516175  1
  Tl  Tl10  1  0.23639140  0.27753351  0.51177013  1
  Tl  Tl11  1  0.23528560  0.26669914  0.74459769  1
  Tl  Tl12  1  0.96249913  0.49169910  0.96684432  1
  Tl  Tl13  1  0.00368060  0.49831210  0.26251220  1
  Tl  Tl14  1  0.97932578  0.52679125  0.49790914  1
  Tl  Tl15  1  0.99646210  0.49295461  0.69244947  1
  Tl  Tl16  1  0.72129424  0.26861286  0.98095334  1
  Tl  Tl17  1  0.71256111  0.20719144  0.24450483  1
  Tl  Tl18  1  0.74994719  0.24566179  0.46953911  1
  Tl  Tl19  1  0.73528850  0.22684194  0.74349844  1
  Tl  Tl20  1  0.55017315  0.51751637  0.01560526  1
  Tl  Tl21  1  0.56662044  0.51703879  0.24553343  1
  Tl  Tl22  1  0.50159514  0.50646256  0.49215165  1
  Tl  Tl23  1  0.50147171  0.45939128  0.77398425  1
  Tl  Tl24  1  0.25495661  0.70575642  0.97250294  1
  Tl  Tl25  1  0.21662786  0.74949458  0.23313585  1
  Tl  Tl26  1  0.22630568  0.73760498  0.47712639  1
  Tl  Tl27  1  0.22597434  0.69194268  0.75080688  1
  Tl  Tl28  1  0.78889578  0.74685240  0.01174850  1
  Tl  Tl29  1  0.76920024  0.77398939  0.26330923  1
  Tl  Tl30  1  0.75650821  0.78279738  0.51385597  1
  Tl  Tl31  1  0.75461269  0.74609252  0.76766685  1
  In  In32  1  0.99667092  0.23323731  0.12229797  1
  In  In33  1  0.01243127  0.25045693  0.38333119  1
  In  In34  1  0.98730053  0.26212309  0.63528606  1
  In  In35  1  0.98920183  0.21448089  0.90194774  1
  In  In36  1  0.51169158  0.26190129  0.12362525  1
  In  In37  1  0.48270251  0.26919305  0.36760395  1
  In  In38  1  0.50681932  0.25331543  0.61486333  1
  In  In39  1  0.49032709  0.21262761  0.87071818  1
  In  In40  1  0.29333682  0.51327585  0.12608212  1
  In  In41  1  0.26311994  0.50478867  0.36281307  1
  In  In42  1  0.25405652  0.50753420  0.61856169  1
  In  In43  1  0.22467563  0.47375144  0.87843718  1
  In  In44  1  0.01626405  0.75322852  0.12219471  1
  In  In45  1  0.00742128  0.75272748  0.37690631  1
  In  In46  1  0.98604664  0.77198655  0.63263245  1
  In  In47  1  0.99466634  0.76454717  0.86514689  1
  In  In48  1  0.78145340  0.50301951  0.12402595  1
  In  In49  1  0.75503476  0.51097378  0.38165332  1
  In  In50  1  0.71705370  0.50994765  0.61912493  1
  In  In51  1  0.75040964  0.48637369  0.85712872  1
  In  In52  1  0.50187329  0.75573808  0.13053687  1
  In  In53  1  0.49075174  0.76019469  0.37640449  1
  In  In54  1  0.48187570  0.73513802  0.62719000  1
  In  In55  1  0.49172028  0.72902794  0.86625820  1
  In  In56  1  0.25746211  0.00933357  0.12972284  1
  In  In57  1  0.25937035  0.00990788  0.38103315  1
  In  In58  1  0.25792151  0.00509419  0.62291107  1
  In  In59  1  0.23462380  0.98966765  0.88553978  1
  In  In60  1  0.75625221  0.99378567  0.11160517  1
  In  In61  1  0.75468903  0.00506575  0.37286835  1
  In  In62  1  0.72922935  0.00917853  0.62601494  1
  In  In63  1  0.75428828  0.98463950  0.87987994  1
  Cl  Cl64  1  0.92609082  0.17655931  0.01049424  1
  Cl  Cl65  1  0.04922939  0.27380472  0.22884025  1
  Cl  Cl66  1  0.94847632  0.22914068  0.50794182  1
  Cl  Cl67  1  0.03892701  0.23241819  0.79181243  1
  Cl  Cl68  1  0.51074073  0.30979520  0.01009181  1
  Cl  Cl69  1  0.50384901  0.21133170  0.23791905  1
  Cl  Cl70  1  0.49864499  0.29034657  0.50209014  1
  Cl  Cl71  1  0.52329456  0.23353732  0.72958624  1
  Cl  Cl72  1  0.34238986  0.51319931  0.01508784  1
  Cl  Cl73  1  0.22358250  0.51192570  0.24355794  1
  Cl  Cl74  1  0.28959779  0.50077385  0.47852549  1
  Cl  Cl75  1  0.18481091  0.47354198  0.74636421  1
  Cl  Cl76  1  0.00042303  0.79729492  0.97747037  1
  Cl  Cl77  1  0.00172998  0.69756131  0.25156149  1
  Cl  Cl78  1  0.97061899  0.79881545  0.51931423  1
  Cl  Cl79  1  0.98028837  0.70658405  0.74284095  1
  Cl  Cl80  1  0.75121942  0.47265011  0.99496918  1
  Cl  Cl81  1  0.78414469  0.55264699  0.27036143  1
  Cl  Cl82  1  0.72475337  0.46031257  0.50199562  1
  Cl  Cl83  1  0.68786434  0.55646626  0.72804804  1
  Cl  Cl84  1  0.45394863  0.73521978  0.01899678  1
  Cl  Cl85  1  0.55320484  0.77746562  0.24287833  1
  Cl  Cl86  1  0.41708843  0.70487565  0.52097796  1
  Cl  Cl87  1  0.55605632  0.77010042  0.73194085  1
  Cl  Cl88  1  0.21223197  0.91560222  0.98823114  1
  Cl  Cl89  1  0.24439965  0.07646573  0.27314008  1
  Cl  Cl90  1  0.28077077  0.93497449  0.48805839  1
  Cl  Cl91  1  0.23094445  0.05675406  0.78010342  1
  Cl  Cl92  1  0.82692758  0.95542270  0.98155742  1
  Cl  Cl93  1  0.71080502  0.99662289  0.25708993  1
  Cl  Cl94  1  0.79316037  0.01186376  0.48774969  1
  Cl  Cl95  1  0.69658661  0.00601646  0.77110055  1
  Cl  Cl96  1  0.13185863  0.16273919  0.08906652  1
  Cl  Cl97  1  0.11849111  0.08600657  0.41693292  1
  Cl  Cl98  1  0.14046921  0.15287627  0.61055363  1
  Cl  Cl99  1  0.07806413  0.06699448  0.91000508  1
  Cl  Cl100  1  0.61754076  0.13967219  0.10545829  1
  Cl  Cl101  1  0.62621352  0.11203662  0.38787707  1
  Cl  Cl102  1  0.66254979  0.19573251  0.60123434  1
  Cl  Cl103  1  0.63979229  0.08085686  0.92836062  1
  Cl  Cl104  1  0.41319324  0.40409313  0.16265911  1
  Cl  Cl105  1  0.41919403  0.45810389  0.34200176  1
  Cl  Cl106  1  0.35688730  0.32885652  0.63033909  1
  Cl  Cl107  1  0.35527403  0.34353674  0.84839018  1
  Cl  Cl108  1  0.19051362  0.63738939  0.10570496  1
  Cl  Cl109  1  0.10655019  0.56210891  0.38197834  1
  Cl  Cl110  1  0.09134764  0.64913455  0.61040289  1
  Cl  Cl111  1  0.09960301  0.63797717  0.87400552  1
  Cl  Cl112  1  0.93916731  0.37690413  0.09788184  1
  Cl  Cl113  1  0.89299866  0.41815036  0.38733811  1
  Cl  Cl114  1  0.81214276  0.38480239  0.65085520  1
  Cl  Cl115  1  0.87851867  0.33399518  0.88829363  1
  Cl  Cl116  1  0.63006885  0.65141543  0.11753502  1
  Cl  Cl117  1  0.61545676  0.60009674  0.38480616  1
  Cl  Cl118  1  0.62176948  0.64172925  0.57992312  1
  Cl  Cl119  1  0.58573426  0.57202819  0.88127716  1
  Cl  Cl120  1  0.37013971  0.85187376  0.15635067  1
  Cl  Cl121  1  0.40319471  0.93559076  0.34691767  1
  Cl  Cl122  1  0.35144775  0.82630956  0.66332810  1
  Cl  Cl123  1  0.35883953  0.89067183  0.85554872  1
  Cl  Cl124  1  0.84406062  0.83147898  0.13788306  1
  Cl  Cl125  1  0.88581141  0.90545636  0.34686245  1
  Cl  Cl126  1  0.83907947  0.83941528  0.64966375  1
  Cl  Cl127  1  0.88893099  0.88677081  0.82759025  1
  Cl  Cl128  1  0.89654716  0.12449935  0.16655876  1
  Cl  Cl129  1  0.85031353  0.13990832  0.35032563  1
  Cl  Cl130  1  0.88547059  0.09609591  0.65419519  1
  Cl  Cl131  1  0.85925741  0.11412436  0.85325651  1
  Cl  Cl132  1  0.37106940  0.18172109  0.10851437  1
  Cl  Cl133  1  0.34833668  0.13668972  0.42335649  1
  Cl  Cl134  1  0.43824487  0.10219918  0.60324672  1
  Cl  Cl135  1  0.32956625  0.10172090  0.93578362  1
  Cl  Cl136  1  0.18936979  0.39175455  0.10799113  1
  Cl  Cl137  1  0.20916228  0.34852703  0.36393434  1
  Cl  Cl138  1  0.09977386  0.40766626  0.57979740  1
  Cl  Cl139  1  0.09968841  0.31518281  0.94633026  1
  Cl  Cl140  1  0.91342344  0.61028747  0.07470837  1
  Cl  Cl141  1  0.84069124  0.64380985  0.41936556  1
  Cl  Cl142  1  0.85235225  0.60676596  0.60510693  1
  Cl  Cl143  1  0.86590179  0.66263765  0.88122381  1
  Cl  Cl144  1  0.63560050  0.36511155  0.14928738  1
  Cl  Cl145  1  0.66717851  0.37555814  0.35090643  1
  Cl  Cl146  1  0.57187295  0.41963900  0.62678733  1
  Cl  Cl147  1  0.63919653  0.33202241  0.85439699  1
  Cl  Cl148  1  0.40540117  0.62441748  0.17404364  1
  Cl  Cl149  1  0.31048841  0.66650741  0.35627704  1
  Cl  Cl150  1  0.41982355  0.60055415  0.67490806  1
  Cl  Cl151  1  0.34340393  0.61695529  0.84916450  1
  Cl  Cl152  1  0.10789981  0.92187726  0.17233595  1
  Cl  Cl153  1  0.16691239  0.87812443  0.34845218  1
  Cl  Cl154  1  0.08826648  0.89367066  0.65264770  1
  Cl  Cl155  1  0.12381884  0.86197088  0.83107810  1
  Cl  Cl156  1  0.58622908  0.89181276  0.09738496  1
  Cl  Cl157  1  0.65933185  0.87177529  0.39492878  1
  Cl  Cl158  1  0.56131142  0.86878971  0.58757193  1
  Cl  Cl159  1  0.66387140  0.84755822  0.89290222  1
