# generated using pymatgen
data_MgTlCl3
_symmetry_space_group_name_H-M   'P 1'
_cell_length_a   14.18978614
_cell_length_b   14.18978614
_cell_length_c   20.06738800
_cell_angle_alpha   90.00000000
_cell_angle_beta   90.00000000
_cell_angle_gamma   90.00000000
_symmetry_Int_Tables_number   1
_chemical_formula_structural   MgTlCl3
_chemical_formula_sum   'Mg32 Tl32 Cl96'
_cell_volume   4040.56918729
_cell_formula_units_Z   32
loop_
 _symmetry_equiv_pos_site_id
 _symmetry_equiv_pos_as_xyz
  1  'x, y, z'
loop_
 _atom_site_type_symbol
 _atom_site_label
 _atom_site_symmetry_multiplicity
 _atom_site_fract_x
 _atom_site_fract_y
 _atom_site_fract_z
 _atom_site_occupancy
  Cl  Cl0  1  0.11205708  0.13816924  -0.01136975  1
  Cl  Cl1  1  0.13670746  0.11409892  0.26321032  1
  Cl  Cl2  1  0.11292969  0.13767833  0.48856284  1
  Cl  Cl3  1  0.13664499  0.11411255  0.76323392  1
  Cl  Cl4  1  0.61380948  0.13675718  0.98568172  1
  Cl  Cl5  1  0.63867078  0.11185015  0.26225234  1
  Cl  Cl6  1  0.61461933  0.13578457  0.48557278  1
  Cl  Cl7  1  0.63888879  0.11194673  0.76178096  1
  Cl  Cl8  1  0.38852338  0.36214426  0.01139457  1
  Cl  Cl9  1  0.36432041  0.38637306  0.23685397  1
  Cl  Cl10  1  0.38804115  0.36260939  0.51115082  1
  Cl  Cl11  1  0.36411035  0.38632672  0.73674933  1
  Cl  Cl12  1  0.11397058  0.63644276  -0.01445917  1
  Cl  Cl13  1  0.13832793  0.61239936  0.26227265  1
  Cl  Cl14  1  0.11498198  0.63580454  0.48556127  1
  Cl  Cl15  1  0.13855431  0.61231645  0.76206174  1
  Cl  Cl16  1  0.88673228  0.36356892  0.01425493  1
  Cl  Cl17  1  0.86245012  0.38815414  0.23796013  1
  Cl  Cl18  1  0.88617959  0.36446377  0.51446748  1
  Cl  Cl19  1  0.86242208  0.38821186  0.73761324  1
  Cl  Cl20  1  0.61199653  0.63836231  -0.01135562  1
  Cl  Cl21  1  0.63692143  0.61369646  0.26328328  1
  Cl  Cl22  1  0.61342306  0.63717212  0.48856905  1
  Cl  Cl23  1  0.63667543  0.61396387  0.76278581  1
  Cl  Cl24  1  0.38646369  0.86406513  0.01419940  1
  Cl  Cl25  1  0.36248232  0.88814683  0.23799624  1
  Cl  Cl26  1  0.38606854  0.86448740  0.51448707  1
  Cl  Cl27  1  0.36264595  0.88807494  0.73767098  1
  Cl  Cl28  1  0.88841855  0.86195278  0.01135242  1
  Cl  Cl29  1  0.86411239  0.88631965  0.23707416  1
  Cl  Cl30  1  0.88793717  0.86288703  0.51109146  1
  Cl  Cl31  1  0.86418049  0.88643521  0.73674052  1
  Cl  Cl32  1  0.86267056  0.11248378  0.01427781  1
  Cl  Cl33  1  0.88769108  0.13735237  0.23574384  1
  Cl  Cl34  1  0.86358474  0.11335397  0.51455848  1
  Cl  Cl35  1  0.88783174  0.13783298  0.73538323  1
  Cl  Cl36  1  0.36288064  0.11269997  0.98535313  1
  Cl  Cl37  1  0.38796749  0.13737385  0.26463075  1
  Cl  Cl38  1  0.36364098  0.11324577  0.48536050  1
  Cl  Cl39  1  0.38789452  0.13741068  0.76450820  1
  Cl  Cl40  1  0.13776007  0.38761636  0.01458670  1
  Cl  Cl41  1  0.11334337  0.36314312  0.23520373  1
  Cl  Cl42  1  0.13749566  0.38717574  0.51476600  1
  Cl  Cl43  1  0.11324091  0.36305180  0.73533939  1
  Cl  Cl44  1  0.86277703  0.61252287  0.98534164  1
  Cl  Cl45  1  0.88794755  0.63740898  0.26461676  1
  Cl  Cl46  1  0.86412737  0.61345876  0.48513656  1
  Cl  Cl47  1  0.88773695  0.63740783  0.76463262  1
  Cl  Cl48  1  0.63788651  0.38784337  0.98562940  1
  Cl  Cl49  1  0.61305994  0.36262460  0.26441486  1
  Cl  Cl50  1  0.63730290  0.38690904  0.48525841  1
  Cl  Cl51  1  0.61308122  0.36285830  0.76431093  1
  Cl  Cl52  1  0.36288861  0.61283251  0.01453178  1
  Cl  Cl53  1  0.38764344  0.63731813  0.23562274  1
  Cl  Cl54  1  0.36382940  0.61331078  0.51446425  1
  Cl  Cl55  1  0.38774874  0.63747515  0.73534783  1
  Cl  Cl56  1  0.13766856  0.88764483  0.98558646  1
  Cl  Cl57  1  0.11323504  0.86308421  0.26453938  1
  Cl  Cl58  1  0.13733580  0.88711628  0.48546465  1
  Cl  Cl59  1  0.11327630  0.86318111  0.76427719  1
  Cl  Cl60  1  0.63772185  0.88768319  0.01450103  1
  Cl  Cl61  1  0.61309242  0.86271769  0.23528264  1
  Cl  Cl62  1  0.63716397  0.88683160  0.51461022  1
  Cl  Cl63  1  0.61322615  0.86279107  0.73521376  1
  Cl  Cl64  1  0.02683268  0.99825084  0.12513848  1
  Cl  Cl65  1  -0.02627278  0.00221509  0.37491285  1
  Cl  Cl66  1  0.02700679  0.99823814  0.62506033  1
  Cl  Cl67  1  0.97349849  0.00216708  0.87486097  1
  Cl  Cl68  1  0.49923094  0.02767198  0.12496904  1
  Cl  Cl69  1  0.50172321  0.97234280  0.37497119  1
  Cl  Cl70  1  0.49935213  0.02780122  0.62489471  1
  Cl  Cl71  1  0.50194144  -0.02739171  0.87487213  1
  Cl  Cl72  1  0.25234110  0.22327299  0.12498723  1
  Cl  Cl73  1  0.24820227  0.27690677  0.37499005  1
  Cl  Cl74  1  0.25238824  0.22334335  0.62494895  1
  Cl  Cl75  1  0.24839157  0.27707099  0.87500249  1
  Cl  Cl76  1  -0.00096254  0.52780336  0.12495354  1
  Cl  Cl77  1  0.00204309  0.47235193  0.37498955  1
  Cl  Cl78  1  -0.00069381  0.52808144  0.62500338  1
  Cl  Cl79  1  0.00162379  0.47239742  0.87488157  1
  Cl  Cl80  1  0.72288547  0.25096725  0.12498162  1
  Cl  Cl81  1  0.77810424  0.24921761  0.37503078  1
  Cl  Cl82  1  0.72237756  0.25122933  0.62492329  1
  Cl  Cl83  1  0.77791693  0.24921680  0.87485795  1
  Cl  Cl84  1  0.52719886  0.49838856  0.12506684  1
  Cl  Cl85  1  0.47384584  0.50219979  0.37484886  1
  Cl  Cl86  1  0.52690653  0.49776553  0.62492489  1
  Cl  Cl87  1  0.47358479  0.50231528  0.87484169  1
  Cl  Cl88  1  0.22284230  0.75120633  0.12500112  1
  Cl  Cl89  1  0.27813341  0.74927119  0.37501078  1
  Cl  Cl90  1  0.22258943  0.75106805  0.62493491  1
  Cl  Cl91  1  0.27791166  0.74926929  0.87491847  1
  Cl  Cl92  1  0.75227184  0.72322623  0.12491347  1
  Cl  Cl93  1  0.74836007  0.77683762  0.37498753  1
  Cl  Cl94  1  0.75284934  0.72332454  0.62490281  1
  Cl  Cl95  1  0.74824943  0.77698033  0.87491253  1
  Mg  Mg96  1  0.00022820  0.00012760  0.00002439  1
  Mg  Mg97  1  0.00046992  0.00015459  0.25007170  1
  Mg  Mg98  1  0.00044285  0.00019880  0.49995840  1
  Mg  Mg99  1  0.00033352  0.00046724  0.74994919  1
  Mg  Mg100  1  0.50027963  0.00020546  -0.00008860  1
  Mg  Mg101  1  0.50056912  0.00008884  0.25007010  1
  Mg  Mg102  1  0.50047002  -0.00000518  0.49999024  1
  Mg  Mg103  1  0.50066143  0.00023186  0.74990200  1
  Mg  Mg104  1  0.25027020  0.25018626  0.00003245  1
  Mg  Mg105  1  0.25052721  0.25013427  0.24998620  1
  Mg  Mg106  1  0.25050532  0.25015209  0.49997713  1
  Mg  Mg107  1  0.25038031  0.25022240  0.75001378  1
  Mg  Mg108  1  0.00018192  0.50010680  -0.00007823  1
  Mg  Mg109  1  0.00048758  0.50007903  0.24999152  1
  Mg  Mg110  1  0.00062781  0.50013187  0.50008387  1
  Mg  Mg111  1  0.00052377  0.50030932  0.74989381  1
  Mg  Mg112  1  0.75022051  0.25019859  -0.00008434  1
  Mg  Mg113  1  0.75045140  0.25007823  0.25003895  1
  Mg  Mg114  1  0.75041347  0.25010358  0.49998819  1
  Mg  Mg115  1  0.75038441  0.25031068  0.74986877  1
  Mg  Mg116  1  0.50021343  0.50026400  -0.00001732  1
  Mg  Mg117  1  0.50063923  0.50012402  0.24994392  1
  Mg  Mg118  1  0.50052958  0.50010112  0.49987491  1
  Mg  Mg119  1  0.50035780  0.50004925  0.74991897  1
  Mg  Mg120  1  0.25021261  0.75019605  -0.00004887  1
  Mg  Mg121  1  0.25047376  0.75022717  0.25002355  1
  Mg  Mg122  1  0.25053568  0.75015603  0.49994534  1
  Mg  Mg123  1  0.25046466  0.75025082  0.74984988  1
  Mg  Mg124  1  0.75023739  0.75012366  -0.00004941  1
  Mg  Mg125  1  0.75044961  0.75001020  0.24994549  1
  Mg  Mg126  1  0.75065662  0.75007629  0.49992168  1
  Mg  Mg127  1  0.75046011  0.75019732  0.74994210  1
  Tl  Tl128  1  0.01098342  0.23915558  0.11821627  1
  Tl  Tl129  1  0.00750457  0.24304804  0.36499738  1
  Tl  Tl130  1  0.01109335  0.23985389  0.61793092  1
  Tl  Tl131  1  0.00732290  0.24301858  0.86472533  1
  Tl  Tl132  1  0.49361681  0.25722601  0.13516395  1
  Tl  Tl133  1  0.49036630  0.26048886  0.38191115  1
  Tl  Tl134  1  0.49299381  0.25727035  0.63471310  1
  Tl  Tl135  1  0.48936956  0.26132150  0.88179321  1
  Tl  Tl136  1  0.23997791  0.51051950  0.13237552  1
  Tl  Tl137  1  0.24407236  0.50643592  0.38494225  1
  Tl  Tl138  1  0.24004018  0.51098575  0.63210524  1
  Tl  Tl139  1  0.24313610  0.50689367  0.88530978  1
  Tl  Tl140  1  -0.00650898  0.75731237  0.13533551  1
  Tl  Tl141  1  -0.00955873  0.76049894  0.38191892  1
  Tl  Tl142  1  -0.00690415  0.75774487  0.63484035  1
  Tl  Tl143  1  -0.01011231  0.76143929  0.88162861  1
  Tl  Tl144  1  0.75719737  0.49339538  0.11451418  1
  Tl  Tl145  1  0.76120037  0.48984392  0.36798754  1
  Tl  Tl146  1  0.75663146  0.49357288  0.61469973  1
  Tl  Tl147  1  0.76092087  0.48981098  0.86741668  1
  Tl  Tl148  1  0.51056736  0.73964187  0.11813945  1
  Tl  Tl149  1  0.50777377  0.74277991  0.36490680  1
  Tl  Tl150  1  0.51114712  0.73938773  0.61787619  1
  Tl  Tl151  1  0.50754944  0.74288704  0.86465365  1
  Tl  Tl152  1  0.25737488  -0.00647510  0.11483797  1
  Tl  Tl153  1  0.26094679  -0.01015752  0.36809944  1
  Tl  Tl154  1  0.25687636  -0.00634337  0.61487862  1
  Tl  Tl155  1  0.26114940  -0.01044039  0.86761550  1
  Tl  Tl156  1  0.73993099  0.01011033  0.13225105  1
  Tl  Tl157  1  0.74411978  0.00653541  0.38534145  1
  Tl  Tl158  1  0.74003424  0.01050269  0.63208270  1
  Tl  Tl159  1  0.74346049  0.00697215  0.88541505  1
