# generated using pymatgen
data_MgTlF3
_symmetry_space_group_name_H-M   'P 1'
_cell_length_a   11.62704307
_cell_length_b   11.62704307
_cell_length_c   16.44312300
_cell_angle_alpha   90.00000000
_cell_angle_beta   90.00000000
_cell_angle_gamma   90.00000000
_symmetry_Int_Tables_number   1
_chemical_formula_structural   MgTlF3
_chemical_formula_sum   'Mg32 Tl32 F96'
_cell_volume   2222.91505883
_cell_formula_units_Z   32
loop_
 _symmetry_equiv_pos_site_id
 _symmetry_equiv_pos_as_xyz
  1  'x, y, z'
loop_
 _atom_site_type_symbol
 _atom_site_label
 _atom_site_symmetry_multiplicity
 _atom_site_fract_x
 _atom_site_fract_y
 _atom_site_fract_z
 _atom_site_occupancy
  F  F0  1  0.12486124  0.12562618  0.99920891  1
  F  F1  1  0.12493489  0.12572257  0.24920559  1
  F  F2  1  0.12492383  0.12563374  0.49922666  1
  F  F3  1  0.12502942  0.12543645  0.74919264  1
  F  F4  1  0.62482563  0.12557620  0.99924798  1
  F  F5  1  0.62477833  0.12588897  0.24922286  1
  F  F6  1  0.62488327  0.12567394  0.49926478  1
  F  F7  1  0.62497610  0.12549609  0.74919033  1
  F  F8  1  0.37483638  0.37562422  -0.00082839  1
  F  F9  1  0.37485439  0.37579051  0.24925625  1
  F  F10  1  0.37495412  0.37566586  0.49920376  1
  F  F11  1  0.37504888  0.37547244  0.74920157  1
  F  F12  1  0.12509203  0.62552093  -0.00075051  1
  F  F13  1  0.12504650  0.62575011  0.24922027  1
  F  F14  1  0.12515358  0.62562906  0.49927391  1
  F  F15  1  0.12519408  0.62539931  0.74918839  1
  F  F16  1  0.87478767  0.37562098  -0.00080094  1
  F  F17  1  0.87488242  0.37575302  0.24925760  1
  F  F18  1  0.87494593  0.37560024  0.49923561  1
  F  F19  1  0.87498448  0.37545578  0.74921983  1
  F  F20  1  0.62509753  0.62557831  0.99921471  1
  F  F21  1  0.62509647  0.62577743  0.24923532  1
  F  F22  1  0.62527192  0.62562645  0.49921121  1
  F  F23  1  0.62521727  0.62554874  0.74919551  1
  F  F24  1  0.37505452  0.87555117  -0.00078548  1
  F  F25  1  0.37511593  0.87572795  0.24924375  1
  F  F26  1  0.37520300  0.87559125  0.49924430  1
  F  F27  1  0.37521608  0.87542969  0.74923097  1
  F  F28  1  0.87508153  0.87557539  -0.00076055  1
  F  F29  1  0.87517520  0.87573707  0.24925956  1
  F  F30  1  0.87518144  0.87564324  0.49921432  1
  F  F31  1  0.87525383  0.87546815  0.74924297  1
  F  F32  1  0.87483631  0.12557573  -0.00075634  1
  F  F33  1  0.87485085  0.12576113  0.24924667  1
  F  F34  1  0.87487848  0.12557651  0.49925995  1
  F  F35  1  0.87500681  0.12546652  0.74924170  1
  F  F36  1  0.37481185  0.12555080  -0.00077897  1
  F  F37  1  0.37488214  0.12572341  0.24920563  1
  F  F38  1  0.37491919  0.12558790  0.49921640  1
  F  F39  1  0.37497703  0.12550142  0.74921135  1
  F  F40  1  0.12478538  0.37552804  -0.00076905  1
  F  F41  1  0.12484483  0.37573863  0.24929165  1
  F  F42  1  0.12492559  0.37563118  0.49927268  1
  F  F43  1  0.12501516  0.37547040  0.74919166  1
  F  F44  1  0.87505413  0.62560078  0.99924537  1
  F  F45  1  0.87509353  0.62575753  0.24916614  1
  F  F46  1  0.87521118  0.62569624  0.49924545  1
  F  F47  1  0.87515924  0.62550602  0.74918624  1
  F  F48  1  0.62477059  0.37557067  0.99922686  1
  F  F49  1  0.62482935  0.37583274  0.24923603  1
  F  F50  1  0.62491603  0.37560641  0.49923039  1
  F  F51  1  0.62495490  0.37549131  0.74917963  1
  F  F52  1  0.37509972  0.62561888  0.99920354  1
  F  F53  1  0.37507017  0.62570142  0.24927658  1
  F  F54  1  0.37514004  0.62562862  0.49925480  1
  F  F55  1  0.37518382  0.62551059  0.74923467  1
  F  F56  1  0.12506667  0.87553694  0.99919248  1
  F  F57  1  0.12512611  0.87578888  0.24925030  1
  F  F58  1  0.12514816  0.87564412  0.49920044  1
  F  F59  1  0.12516413  0.87541532  0.74924324  1
  F  F60  1  0.62502356  0.87560147  -0.00075704  1
  F  F61  1  0.62511067  0.87584142  0.24923927  1
  F  F62  1  0.62520341  0.87568534  0.49923527  1
  F  F63  1  0.62523938  0.87555360  0.74921187  1
  F  F64  1  0.99996903  0.00074574  0.12418481  1
  F  F65  1  -0.00001009  0.00085912  0.37418723  1
  F  F66  1  0.00012668  0.00054960  0.62415870  1
  F  F67  1  0.00006638  0.00061766  0.87417974  1
  F  F68  1  0.49994687  0.00072513  0.12415967  1
  F  F69  1  0.49999986  0.00075573  0.37417289  1
  F  F70  1  0.50005371  0.00056399  0.62415871  1
  F  F71  1  0.50000229  0.00058072  0.87415185  1
  F  F72  1  0.24978301  0.25081061  0.12416052  1
  F  F73  1  0.24983194  0.25074716  0.37418683  1
  F  F74  1  0.24990947  0.25052076  0.62415773  1
  F  F75  1  0.24981111  0.25059827  0.87416268  1
  F  F76  1  -0.00007224  0.50060310  0.12416602  1
  F  F77  1  -0.00003288  0.50080122  0.37417928  1
  F  F78  1  -0.00001697  0.50052304  0.62415353  1
  F  F79  1  0.00002099  0.50054993  0.87415199  1
  F  F80  1  0.74973586  0.25084219  0.12417779  1
  F  F81  1  0.74979951  0.25076191  0.37418768  1
  F  F82  1  0.74991059  0.25060328  0.62416797  1
  F  F83  1  0.74971383  0.25053864  0.87414586  1
  F  F84  1  0.49990983  0.50078087  0.12415983  1
  F  F85  1  0.50007802  0.50084490  0.37415186  1
  F  F86  1  0.50003621  0.50067966  0.62417211  1
  F  F87  1  0.50011296  0.50060490  0.87413324  1
  F  F88  1  0.25015542  0.75067963  0.12418695  1
  F  F89  1  0.25021797  0.75073142  0.37418132  1
  F  F90  1  0.25026044  0.75062528  0.62416320  1
  F  F91  1  0.25017552  0.75047110  0.87415682  1
  F  F92  1  0.75011801  0.75084708  0.12417343  1
  F  F93  1  0.75027320  0.75082506  0.37414946  1
  F  F94  1  0.75029392  0.75068343  0.62417227  1
  F  F95  1  0.75017037  0.75058911  0.87414950  1
  Mg  Mg96  1  -0.00003181  0.00059518  0.99911372  1
  Mg  Mg97  1  -0.00000513  0.00078957  0.24916236  1
  Mg  Mg98  1  0.00006769  0.00061948  0.49913463  1
  Mg  Mg99  1  0.00011196  0.00050642  0.74914744  1
  Mg  Mg100  1  0.49997805  0.00057907  -0.00085737  1
  Mg  Mg101  1  0.49995741  0.00080601  0.24913393  1
  Mg  Mg102  1  0.50003107  0.00062220  0.49916552  1
  Mg  Mg103  1  0.50008329  0.00050353  0.74914210  1
  Mg  Mg104  1  0.24978686  0.25059319  -0.00087260  1
  Mg  Mg105  1  0.24984694  0.25078215  0.24917190  1
  Mg  Mg106  1  0.24990602  0.25059714  0.49913598  1
  Mg  Mg107  1  0.24995956  0.25050475  0.74907848  1
  Mg  Mg108  1  -0.00007019  0.50055949  -0.00089299  1
  Mg  Mg109  1  -0.00005238  0.50073536  0.24920387  1
  Mg  Mg110  1  0.00003208  0.50062050  0.49913337  1
  Mg  Mg111  1  0.00005536  0.50043557  0.74909418  1
  Mg  Mg112  1  0.74975233  0.25062665  0.99914998  1
  Mg  Mg113  1  0.74981024  0.25080537  0.24915309  1
  Mg  Mg114  1  0.74988433  0.25061458  0.49917336  1
  Mg  Mg115  1  0.74990677  0.25048590  0.74913081  1
  Mg  Mg116  1  0.49997779  0.50059117  0.99913328  1
  Mg  Mg117  1  0.49997285  0.50082545  0.24914777  1
  Mg  Mg118  1  0.50004506  0.50067612  0.49914711  1
  Mg  Mg119  1  0.50009512  0.50053240  0.74909806  1
  Mg  Mg120  1  0.25011368  0.75057692  -0.00086391  1
  Mg  Mg121  1  0.25014174  0.75072861  0.24918982  1
  Mg  Mg122  1  0.25021559  0.75060049  0.49914102  1
  Mg  Mg123  1  0.25020840  0.75047582  0.74913002  1
  Mg  Mg124  1  0.75009372  0.75065283  0.99913407  1
  Mg  Mg125  1  0.75018454  0.75080983  0.24913977  1
  Mg  Mg126  1  0.75026810  0.75065746  0.49915261  1
  Mg  Mg127  1  0.75023235  0.75053124  0.74911232  1
  Tl  Tl128  1  0.99978296  0.25082816  0.12415852  1
  Tl  Tl129  1  0.99981888  0.25072907  0.37421570  1
  Tl  Tl130  1  0.99992167  0.25053486  0.62417915  1
  Tl  Tl131  1  0.99974242  0.25050902  0.87416372  1
  Tl  Tl132  1  0.49970474  0.25076211  0.12414214  1
  Tl  Tl133  1  0.49988111  0.25080802  0.37418628  1
  Tl  Tl134  1  0.49985283  0.25058067  0.62410313  1
  Tl  Tl135  1  0.49981280  0.25054414  0.87411578  1
  Tl  Tl136  1  0.24991231  0.50072701  0.12412115  1
  Tl  Tl137  1  0.24996434  0.50077130  0.37421508  1
  Tl  Tl138  1  0.25010828  0.50051409  0.62414092  1
  Tl  Tl139  1  0.25004303  0.50053043  0.87406079  1
  Tl  Tl140  1  0.00016993  0.75069672  0.12415404  1
  Tl  Tl141  1  0.00023383  0.75076425  0.37413631  1
  Tl  Tl142  1  0.00035215  0.75056545  0.62418120  1
  Tl  Tl143  1  0.00018776  0.75050046  0.87416239  1
  Tl  Tl144  1  0.74993597  0.50074989  0.12416857  1
  Tl  Tl145  1  0.74994483  0.50081429  0.37414923  1
  Tl  Tl146  1  0.75008529  0.50059139  0.62412809  1
  Tl  Tl147  1  0.75000489  0.50056816  0.87415589  1
  Tl  Tl148  1  0.50014768  0.75086397  0.12414591  1
  Tl  Tl149  1  0.50031092  0.75078073  0.37415228  1
  Tl  Tl150  1  0.50031613  0.75064304  0.62416003  1
  Tl  Tl151  1  0.50020211  0.75052927  0.87415888  1
  Tl  Tl152  1  0.24988385  0.00072220  0.12417526  1
  Tl  Tl153  1  0.24999415  0.00078053  0.37416391  1
  Tl  Tl154  1  0.25014369  0.00053547  0.62418640  1
  Tl  Tl155  1  0.25003593  0.00056706  0.87419845  1
  Tl  Tl156  1  0.75000102  0.00082975  0.12416274  1
  Tl  Tl157  1  0.74993015  0.00082807  0.37415307  1
  Tl  Tl158  1  0.75011960  0.00050997  0.62411032  1
  Tl  Tl159  1  0.75008126  0.00055735  0.87415293  1
