# generated using pymatgen
data_TlPbBr3
_symmetry_space_group_name_H-M   'P 1'
_cell_length_a   16.77503924
_cell_length_b   16.77503924
_cell_length_c   23.72348900
_cell_angle_alpha   90.00000000
_cell_angle_beta   90.00000000
_cell_angle_gamma   90.00000000
_symmetry_Int_Tables_number   1
_chemical_formula_structural   TlPbBr3
_chemical_formula_sum   'Tl32 Pb32 Br96'
_cell_volume   6675.83586240
_cell_formula_units_Z   32
loop_
 _symmetry_equiv_pos_site_id
 _symmetry_equiv_pos_as_xyz
  1  'x, y, z'
loop_
 _atom_site_type_symbol
 _atom_site_label
 _atom_site_symmetry_multiplicity
 _atom_site_fract_x
 _atom_site_fract_y
 _atom_site_fract_z
 _atom_site_occupancy
  Br  Br0  1  0.08934482  0.15335860  0.97417988  1
  Br  Br1  1  0.07851037  0.16420927  0.26790522  1
  Br  Br2  1  0.14418801  0.11692225  0.47148129  1
  Br  Br3  1  0.13188316  0.11000952  0.78636149  1
  Br  Br4  1  0.59869673  0.14771699  0.02664043  1
  Br  Br5  1  0.59603721  0.15221613  0.22136667  1
  Br  Br6  1  0.64526186  0.10699478  0.51186504  1
  Br  Br7  1  0.63955046  0.10700270  0.71372557  1
  Br  Br8  1  0.39046174  0.35261609  0.02275495  1
  Br  Br9  1  0.38830120  0.35405317  0.22505789  1
  Br  Br10  1  0.36630800  0.39265370  0.53763744  1
  Br  Br11  1  0.37843586  0.36828380  0.72919068  1
  Br  Br12  1  0.08780277  0.66001951  0.00313106  1
  Br  Br13  1  0.08899255  0.66443108  0.25111888  1
  Br  Br14  1  0.14258462  0.60449221  0.52951807  1
  Br  Br15  1  0.14278788  0.60886406  0.71389213  1
  Br  Br16  1  0.88591848  0.36211272  0.96585886  1
  Br  Br17  1  0.89326881  0.36019723  0.24950636  1
  Br  Br18  1  0.86493854  0.38895121  0.46398802  1
  Br  Br19  1  0.85855076  0.39259357  0.76911888  1
  Br  Br20  1  0.58638833  0.66015103  0.98640087  1
  Br  Br21  1  0.58448778  0.65946447  0.26257466  1
  Br  Br22  1  0.63920699  0.61774714  0.46251633  1
  Br  Br23  1  0.65897231  0.59234821  0.77510619  1
  Br  Br24  1  0.39258044  0.85440185  0.97995271  1
  Br  Br25  1  0.38445125  0.86519915  0.28510468  1
  Br  Br26  1  0.36835944  0.88052638  0.47117964  1
  Br  Br27  1  0.36447475  0.88477160  0.78544133  1
  Br  Br28  1  0.90477249  0.83906780  0.01692892  1
  Br  Br29  1  0.89847160  0.84676211  0.22626195  1
  Br  Br30  1  0.84942993  0.90666853  0.52105359  1
  Br  Br31  1  0.86258883  0.88317001  0.71234433  1
  Br  Br32  1  0.84383581  0.09837880  0.02015439  1
  Br  Br33  1  0.84840143  0.10659899  0.22160180  1
  Br  Br34  1  0.91418051  0.15986460  0.50938066  1
  Br  Br35  1  0.90709221  0.14852474  0.72674143  1
  Br  Br36  1  0.34607011  0.10271769  0.98113503  1
  Br  Br37  1  0.35268408  0.11142681  0.27987731  1
  Br  Br38  1  0.39040249  0.12995948  0.47918988  1
  Br  Br39  1  0.38351864  0.13187698  0.78627831  1
  Br  Br40  1  0.15352794  0.41030109  0.02282621  1
  Br  Br41  1  0.15368241  0.41078932  0.22434469  1
  Br  Br42  1  0.10824695  0.35332288  0.52585946  1
  Br  Br43  1  0.11219799  0.35620936  0.71471042  1
  Br  Br44  1  0.85408454  0.60867930  0.96586011  1
  Br  Br45  1  0.84879610  0.60814678  0.27414341  1
  Br  Br46  1  0.89278467  0.63722614  0.45806048  1
  Br  Br47  1  0.90147826  0.64543024  0.77238329  1
  Br  Br48  1  0.63712530  0.39286614  0.96636110  1
  Br  Br49  1  0.65454927  0.41068452  0.27238168  1
  Br  Br50  1  0.60327668  0.34923470  0.48556462  1
  Br  Br51  1  0.60852840  0.35226534  0.76068196  1
  Br  Br52  1  0.34375817  0.60046037  0.01836679  1
  Br  Br53  1  0.34411614  0.60093543  0.22820758  1
  Br  Br54  1  0.40809489  0.65390591  0.51891021  1
  Br  Br55  1  0.41141673  0.65930022  0.73440549  1
  Br  Br56  1  0.15410280  0.91097229  0.97571068  1
  Br  Br57  1  0.13637174  0.89535052  0.28348658  1
  Br  Br58  1  0.13110649  0.87636747  0.48112605  1
  Br  Br59  1  0.09341852  0.83870270  0.76235917  1
  Br  Br60  1  0.65396985  0.90710941  0.02180096  1
  Br  Br61  1  0.63358540  0.89378667  0.21158974  1
  Br  Br62  1  0.61490119  0.85305314  0.53120722  1
  Br  Br63  1  0.60963524  0.85586670  0.72049769  1
  Br  Br64  1  0.04572921  0.02873128  0.12377372  1
  Br  Br65  1  0.94944957  0.98350022  0.37261186  1
  Br  Br66  1  0.05542119  0.01120065  0.62179292  1
  Br  Br67  1  0.94898018  0.00313521  0.87206683  1
  Br  Br68  1  0.44688205  0.01005190  0.12341168  1
  Br  Br69  1  0.55328793  0.00205442  0.37326553  1
  Br  Br70  1  0.45033290  0.98312578  0.62360600  1
  Br  Br71  1  0.55307117  -0.00290182  0.87429044  1
  Br  Br72  1  0.25112118  0.20491129  0.12434387  1
  Br  Br73  1  0.23638729  0.30206238  0.37614534  1
  Br  Br74  1  0.24124126  0.19439951  0.62371548  1
  Br  Br75  1  0.25854978  0.30349583  0.87384690  1
  Br  Br76  1  0.96411066  0.53333782  0.12792196  1
  Br  Br77  1  0.05135373  0.47706568  0.37775717  1
  Br  Br78  1  0.95454100  0.51936396  0.62798809  1
  Br  Br79  1  0.04957127  0.50555772  0.87640985  1
  Br  Br80  1  0.76691578  0.29039087  0.12172784  1
  Br  Br81  1  0.74049124  0.20357000  0.37266849  1
  Br  Br82  1  0.74412396  0.30058329  0.62335206  1
  Br  Br83  1  0.76399827  0.19811761  0.87166392  1
  Br  Br84  1  0.52891781  0.51462974  0.12517670  1
  Br  Br85  1  0.44655663  0.51344522  0.37642803  1
  Br  Br86  1  0.55763823  0.49834636  0.62471704  1
  Br  Br87  1  0.44997403  0.50097917  0.87254723  1
  Br  Br88  1  0.21629339  0.79588594  0.12495190  1
  Br  Br89  1  0.26193637  0.69959857  0.37508444  1
  Br  Br90  1  0.26526567  0.80253292  0.62367899  1
  Br  Br91  1  0.25686479  0.70459799  0.87382678  1
  Br  Br92  1  0.73830594  0.69696156  0.12682952  1
  Br  Br93  1  0.76254480  0.80275445  0.37569189  1
  Br  Br94  1  0.77304544  0.69784239  0.62715629  1
  Br  Br95  1  0.76911438  0.80037805  0.87688267  1
  Pb  Pb96  1  0.99945222  0.00639159  0.00159673  1
  Pb  Pb97  1  0.99741066  0.00557114  0.24911520  1
  Pb  Pb98  1  -0.00047469  0.00165719  0.49796272  1
  Pb  Pb99  1  0.00103995  0.99419252  0.74646938  1
  Pb  Pb100  1  0.49889841  0.00025625  0.99844169  1
  Pb  Pb101  1  0.49617255  0.99748135  0.25160111  1
  Pb  Pb102  1  0.50246540  0.99093381  0.50345018  1
  Pb  Pb103  1  0.50268785  0.00089119  0.75418946  1
  Pb  Pb104  1  0.24204697  0.25575695  0.99809008  1
  Pb  Pb105  1  0.24595810  0.24850091  0.25184145  1
  Pb  Pb106  1  0.26097846  0.25075257  0.50096833  1
  Pb  Pb107  1  0.24976217  0.24461941  0.74856110  1
  Pb  Pb108  1  0.99880012  0.50007184  0.99608008  1
  Pb  Pb109  1  0.00550524  0.50346433  0.25082669  1
  Pb  Pb110  1  0.99821508  0.50560276  0.49797435  1
  Pb  Pb111  1  0.00608138  0.49430803  0.74980279  1
  Pb  Pb112  1  0.74662030  0.25595577  0.99812116  1
  Pb  Pb113  1  0.73923048  0.25195344  0.24987629  1
  Pb  Pb114  1  0.75845126  0.25511307  0.49946542  1
  Pb  Pb115  1  0.75108275  0.23871568  0.74749351  1
  Pb  Pb116  1  0.50003205  0.50570425  0.99669887  1
  Pb  Pb117  1  0.49792082  0.50364267  0.25170289  1
  Pb  Pb118  1  0.50006607  0.50050447  0.50057895  1
  Pb  Pb119  1  0.50588655  0.50982021  0.74860698  1
  Pb  Pb120  1  0.24384349  0.75577533  0.00066479  1
  Pb  Pb121  1  0.24404673  0.75561081  0.25032326  1
  Pb  Pb122  1  0.24851460  0.74342619  0.50129145  1
  Pb  Pb123  1  0.24505255  0.74948870  0.74715626  1
  Pb  Pb124  1  0.74840196  0.75364144  0.99831441  1
  Pb  Pb125  1  0.74132439  0.75788750  0.24696320  1
  Pb  Pb126  1  0.75397164  0.74464190  0.49789317  1
  Pb  Pb127  1  0.75204134  0.74901156  0.74804709  1
  Tl  Tl128  1  0.96715666  0.22365799  0.15860157  1
  Tl  Tl129  1  0.04210288  0.27372026  0.40569471  1
  Tl  Tl130  1  0.03956090  0.21029668  0.62030433  1
  Tl  Tl131  1  0.97129172  0.19471791  0.86067120  1
  Tl  Tl132  1  0.45406926  0.21176404  0.12203207  1
  Tl  Tl133  1  0.54788964  0.19446750  0.40203446  1
  Tl  Tl134  1  0.54692863  0.30717959  0.62892122  1
  Tl  Tl135  1  0.45397411  0.30169272  0.84827485  1
  Tl  Tl136  1  0.29832857  0.46606747  0.12474960  1
  Tl  Tl137  1  0.24770347  0.50048843  0.33542441  1
  Tl  Tl138  1  0.21304478  0.46869763  0.61736734  1
  Tl  Tl139  1  0.24529344  0.50528604  0.91350061  1
  Tl  Tl140  1  0.01318783  0.73027525  0.12461283  1
  Tl  Tl141  1  0.96548273  0.78343469  0.34482680  1
  Tl  Tl142  1  0.98515185  0.72133033  0.66502404  1
  Tl  Tl143  1  0.96137132  0.74171400  0.90088253  1
  Tl  Tl144  1  0.77814277  0.48782661  0.17161169  1
  Tl  Tl145  1  0.76479500  0.51672072  0.38326944  1
  Tl  Tl146  1  0.76130235  0.49932983  0.66829732  1
  Tl  Tl147  1  0.76879427  0.47383387  0.88205323  1
  Tl  Tl148  1  0.54793636  0.70672184  0.12482561  1
  Tl  Tl149  1  0.45765752  0.71214379  0.38747612  1
  Tl  Tl150  1  0.46696616  0.78424402  0.62615431  1
  Tl  Tl151  1  0.44389790  0.74738818  0.86731372  1
  Tl  Tl152  1  0.24670933  0.00434063  0.08651075  1
  Tl  Tl153  1  0.26871535  0.98091902  0.36814779  1
  Tl  Tl154  1  0.24449595  0.99207279  0.56895500  1
  Tl  Tl155  1  0.26353718  0.01321945  0.86926473  1
  Tl  Tl156  1  0.70540644  0.04384295  0.12279497  1
  Tl  Tl157  1  0.75424727  0.99666123  0.41206360  1
  Tl  Tl158  1  0.71925630  0.96137821  0.62838692  1
  Tl  Tl159  1  0.75038621  0.00152998  0.91130935  1
