# generated using pymatgen
data_TlPbCl3
_symmetry_space_group_name_H-M   'P 1'
_cell_length_a   16.02856217
_cell_length_b   16.02856217
_cell_length_c   22.66781000
_cell_angle_alpha   90.00000000
_cell_angle_beta   90.00000000
_cell_angle_gamma   90.00000000
_symmetry_Int_Tables_number   1
_chemical_formula_structural   TlPbCl3
_chemical_formula_sum   'Tl32 Pb32 Cl96'
_cell_volume   5823.69598815
_cell_formula_units_Z   32
loop_
 _symmetry_equiv_pos_site_id
 _symmetry_equiv_pos_as_xyz
  1  'x, y, z'
loop_
 _atom_site_type_symbol
 _atom_site_label
 _atom_site_symmetry_multiplicity
 _atom_site_fract_x
 _atom_site_fract_y
 _atom_site_fract_z
 _atom_site_occupancy
  Cl  Cl0  1  0.01095056  0.27746149  0.00203933  1
  Cl  Cl1  1  0.02955156  0.20865549  0.25385438  1
  Cl  Cl2  1  0.01954296  0.30284433  0.50310016  1
  Cl  Cl3  1  0.97752076  0.20493235  0.75138071  1
  Cl  Cl4  1  0.52198231  0.20259103  0.99967781  1
  Cl  Cl5  1  0.51961587  0.29275487  0.24975324  1
  Cl  Cl6  1  0.51928129  0.20471724  0.49950501  1
  Cl  Cl7  1  0.48076369  0.29684259  0.74868709  1
  Cl  Cl8  1  0.20324550  0.48846744  0.99898444  1
  Cl  Cl9  1  0.29881954  0.47255497  0.24954516  1
  Cl  Cl10  1  0.21442420  0.52316801  0.50025012  1
  Cl  Cl11  1  0.30178902  0.47642876  0.74942270  1
  Cl  Cl12  1  0.98318323  0.70126941  0.00325012  1
  Cl  Cl13  1  0.01936692  0.80300901  0.25154245  1
  Cl  Cl14  1  0.01608370  0.69926760  0.50068775  1
  Cl  Cl15  1  0.01132470  0.79538357  0.75185949  1
  Cl  Cl16  1  0.79559325  0.51518944  0.00450256  1
  Cl  Cl17  1  0.70279780  0.51536795  0.25331987  1
  Cl  Cl18  1  0.80530798  0.50222348  0.50235234  1
  Cl  Cl19  1  0.71069111  0.48135844  0.75208487  1
  Cl  Cl20  1  0.48440569  0.79543949  0.99900859  1
  Cl  Cl21  1  0.52050997  0.69680321  0.24773034  1
  Cl  Cl22  1  0.52073917  0.80298294  0.49497087  1
  Cl  Cl23  1  0.52605835  0.74179250  0.74625623  1
  Cl  Cl24  1  0.29746336  0.97804421  0.99917229  1
  Cl  Cl25  1  0.20242039  0.98875719  0.24869644  1
  Cl  Cl26  1  0.30185360  0.00615226  0.50138710  1
  Cl  Cl27  1  0.20007630  0.97946474  0.75096632  1
  Cl  Cl28  1  0.72771166  0.02062385  0.99949598  1
  Cl  Cl29  1  0.80016409  0.02146388  0.24757477  1
  Cl  Cl30  1  0.70352640  0.00136525  0.49639279  1
  Cl  Cl31  1  0.78890137  0.98227377  0.74763299  1
  Cl  Cl32  1  0.09072937  0.09349468  0.10596265  1
  Cl  Cl33  1  0.12704947  0.13274585  0.40964252  1
  Cl  Cl34  1  0.10904164  0.10586253  0.59377177  1
  Cl  Cl35  1  0.08835538  0.09305131  0.89138216  1
  Cl  Cl36  1  0.60369262  0.10629987  0.15832533  1
  Cl  Cl37  1  0.64663710  0.14854692  0.35751424  1
  Cl  Cl38  1  0.60751041  0.10659558  0.64356395  1
  Cl  Cl39  1  0.60389172  0.10799388  0.85165978  1
  Cl  Cl40  1  0.38312481  0.38714331  0.09022687  1
  Cl  Cl41  1  0.36573883  0.36921008  0.40356908  1
  Cl  Cl42  1  0.37080151  0.37043241  0.59206063  1
  Cl  Cl43  1  0.38479311  0.39080069  0.90916405  1
  Cl  Cl44  1  0.08989012  0.59512315  0.14449078  1
  Cl  Cl45  1  0.15282923  0.65634691  0.35704239  1
  Cl  Cl46  1  0.10671324  0.60440264  0.65092884  1
  Cl  Cl47  1  0.10998480  0.61599793  0.84338581  1
  Cl  Cl48  1  0.90284168  0.40561559  0.14542704  1
  Cl  Cl49  1  0.86995486  0.37471990  0.34289795  1
  Cl  Cl50  1  0.89742458  0.39392616  0.64553108  1
  Cl  Cl51  1  0.89451855  0.39708509  0.85072370  1
  Cl  Cl52  1  0.60841209  0.60857453  0.09317563  1
  Cl  Cl53  1  0.65626052  0.66105129  0.38959370  1
  Cl  Cl54  1  0.65126466  0.65090403  0.61136524  1
  Cl  Cl55  1  0.61148709  0.61411780  0.90938262  1
  Cl  Cl56  1  0.37982577  0.88210527  0.15929276  1
  Cl  Cl57  1  0.36397831  0.87139618  0.34431487  1
  Cl  Cl58  1  0.40065625  0.90127828  0.64526557  1
  Cl  Cl59  1  0.39214720  0.89596901  0.85183555  1
  Cl  Cl60  1  0.90496742  0.90982184  0.10604110  1
  Cl  Cl61  1  0.86156014  0.86504533  0.40161854  1
  Cl  Cl62  1  0.85842077  0.85804905  0.60430724  1
  Cl  Cl63  1  0.90564411  0.90966607  0.89368747  1
  Cl  Cl64  1  0.85121550  0.14813777  0.10933118  1
  Cl  Cl65  1  0.87768529  0.12336012  0.40356731  1
  Cl  Cl66  1  0.86418962  0.14015333  0.58470093  1
  Cl  Cl67  1  0.84920345  0.15787438  0.88970909  1
  Cl  Cl68  1  0.35997266  0.13251017  0.15712979  1
  Cl  Cl69  1  0.37529792  0.12628218  0.34542119  1
  Cl  Cl70  1  0.34622923  0.14857795  0.63679965  1
  Cl  Cl71  1  0.36394483  0.14015736  0.87241330  1
  Cl  Cl72  1  0.15573700  0.34478572  0.13712299  1
  Cl  Cl73  1  0.11819434  0.38687060  0.34428635  1
  Cl  Cl74  1  0.15242098  0.34475845  0.64055837  1
  Cl  Cl75  1  0.16338616  0.34047654  0.86142893  1
  Cl  Cl76  1  0.84285558  0.64757281  0.14176351  1
  Cl  Cl77  1  0.88489296  0.62056843  0.33729102  1
  Cl  Cl78  1  0.87612478  0.62671397  0.65152858  1
  Cl  Cl79  1  0.86094126  0.64304967  0.84118049  1
  Cl  Cl80  1  0.65666826  0.33439559  0.11478966  1
  Cl  Cl81  1  0.60245664  0.40380229  0.39539979  1
  Cl  Cl82  1  0.60319429  0.39625079  0.60743226  1
  Cl  Cl83  1  0.66329947  0.34586419  0.89020058  1
  Cl  Cl84  1  0.36322028  0.63734813  0.09766637  1
  Cl  Cl85  1  0.40388635  0.60339521  0.39086039  1
  Cl  Cl86  1  0.40146864  0.59997159  0.61313965  1
  Cl  Cl87  1  0.35889346  0.63830895  0.90443124  1
  Cl  Cl88  1  0.15602772  0.83709573  0.11266854  1
  Cl  Cl89  1  0.11770942  0.88362588  0.41073877  1
  Cl  Cl90  1  0.16139388  0.83758694  0.60746877  1
  Cl  Cl91  1  0.15702966  0.84248859  0.88878640  1
  Cl  Cl92  1  0.66314094  0.83483373  0.13147621  1
  Cl  Cl93  1  0.61575511  0.88808595  0.33125293  1
  Cl  Cl94  1  0.63123395  0.87677598  0.63219246  1
  Cl  Cl95  1  0.62860343  0.87346447  0.86903552  1
  Pb  Pb96  1  0.00250641  0.24737337  0.12575439  1
  Pb  Pb97  1  0.00007399  0.25660759  0.37770623  1
  Pb  Pb98  1  0.99680652  0.24600889  0.62525759  1
  Pb  Pb99  1  0.00654490  0.25080139  0.87480130  1
  Pb  Pb100  1  0.49779056  0.24450971  0.12723730  1
  Pb  Pb101  1  0.49785782  0.25118260  0.37614384  1
  Pb  Pb102  1  0.49751371  0.24620138  0.62312314  1
  Pb  Pb103  1  0.50227164  0.25094591  0.87688730  1
  Pb  Pb104  1  0.25426379  0.49648465  0.12758465  1
  Pb  Pb105  1  0.25336013  0.50541641  0.37526579  1
  Pb  Pb106  1  0.25291530  0.49699237  0.62475475  1
  Pb  Pb107  1  0.24901654  0.50139406  0.87312547  1
  Pb  Pb108  1  0.00235387  0.74819154  0.12608448  1
  Pb  Pb109  1  0.99828173  0.75428179  0.37179190  1
  Pb  Pb110  1  0.00780827  0.74767994  0.62313350  1
  Pb  Pb111  1  0.99663735  0.74785019  0.87898131  1
  Pb  Pb112  1  0.74790351  0.49339468  0.12788678  1
  Pb  Pb113  1  0.75516428  0.50500082  0.37811369  1
  Pb  Pb114  1  0.75204425  0.49966466  0.62336960  1
  Pb  Pb115  1  0.75011464  0.50622437  0.87626185  1
  Pb  Pb116  1  0.50419875  0.74798801  0.12586877  1
  Pb  Pb117  1  0.50506847  0.75879940  0.37104705  1
  Pb  Pb118  1  0.50163033  0.74881896  0.62277938  1
  Pb  Pb119  1  0.50292155  0.74680384  0.87804777  1
  Pb  Pb120  1  0.25095151  0.99820190  0.12507514  1
  Pb  Pb121  1  0.25127791  0.00421740  0.38184093  1
  Pb  Pb122  1  0.24908478  0.99374737  0.62487609  1
  Pb  Pb123  1  0.24770360  0.99836918  0.87622639  1
  Pb  Pb124  1  0.75059932  0.99328868  0.12530302  1
  Pb  Pb125  1  0.75000479  0.99594940  0.36622181  1
  Pb  Pb126  1  0.75601549  0.00699491  0.62407046  1
  Pb  Pb127  1  0.75194975  0.00255878  0.87331985  1
  Tl  Tl128  1  0.95144009  0.04548827  0.00250909  1
  Tl  Tl129  1  0.00265070  0.00726600  0.21790612  1
  Tl  Tl130  1  0.00329629  0.02178575  0.48306572  1
  Tl  Tl131  1  0.99535658  0.00227519  0.78329657  1
  Tl  Tl132  1  0.49213803  0.00337147  0.95008052  1
  Tl  Tl133  1  0.46384508  0.00765868  0.25172353  1
  Tl  Tl134  1  0.50410400  0.99719757  0.54018552  1
  Tl  Tl135  1  0.52909428  0.94760970  0.75163517  1
  Tl  Tl136  1  0.25182013  0.30455992  0.99229289  1
  Tl  Tl137  1  0.22295495  0.27454318  0.25640963  1
  Tl  Tl138  1  0.22841235  0.23547169  0.53337807  1
  Tl  Tl139  1  0.27993709  0.28109632  0.74738552  1
  Tl  Tl140  1  0.99766004  0.50473302  0.03617259  1
  Tl  Tl141  1  0.98524770  0.48930045  0.26079272  1
  Tl  Tl142  1  0.99622275  0.49529678  0.54109252  1
  Tl  Tl143  1  0.97529848  0.53123929  0.75502822  1
  Tl  Tl144  1  0.72087498  0.22535325  0.00194961  1
  Tl  Tl145  1  0.71317747  0.22375168  0.23274771  1
  Tl  Tl146  1  0.72929281  0.19465783  0.48206019  1
  Tl  Tl147  1  0.77716593  0.28066669  0.78586565  1
  Tl  Tl148  1  0.46642712  0.53058972  0.00008678  1
  Tl  Tl149  1  0.50264139  0.49556290  0.28712864  1
  Tl  Tl150  1  0.47342081  0.47651535  0.49499317  1
  Tl  Tl151  1  0.50942268  0.48523155  0.71262561  1
  Tl  Tl152  1  0.28260206  0.77626971  0.00190941  1
  Tl  Tl153  1  0.22894817  0.79829819  0.24581485  1
  Tl  Tl154  1  0.20336479  0.73161126  0.48212206  1
  Tl  Tl155  1  0.20040494  0.78162372  0.76149223  1
  Tl  Tl156  1  0.74944881  0.70788796  0.02942111  1
  Tl  Tl157  1  0.72067450  0.71354771  0.25984612  1
  Tl  Tl158  1  0.72134643  0.78961714  0.50316555  1
  Tl  Tl159  1  0.75566832  0.76283355  0.70772101  1
