# generated using pymatgen
data_TlPbF3
_symmetry_space_group_name_H-M   'P 1'
_cell_length_a   13.60586018
_cell_length_b   13.60586018
_cell_length_c   19.24159200
_cell_angle_alpha   90.00000000
_cell_angle_beta   90.00000000
_cell_angle_gamma   90.00000000
_symmetry_Int_Tables_number   1
_chemical_formula_structural   TlPbF3
_chemical_formula_sum   'Tl32 Pb32 F96'
_cell_volume   3561.99256926
_cell_formula_units_Z   32
loop_
 _symmetry_equiv_pos_site_id
 _symmetry_equiv_pos_as_xyz
  1  'x, y, z'
loop_
 _atom_site_type_symbol
 _atom_site_label
 _atom_site_symmetry_multiplicity
 _atom_site_fract_x
 _atom_site_fract_y
 _atom_site_fract_z
 _atom_site_occupancy
  F  F0  1  0.03518267  0.27323006  0.99321782  1
  F  F1  1  0.03503453  0.22164800  0.24466761  1
  F  F2  1  0.02200299  0.26619248  0.49500274  1
  F  F3  1  0.97670682  0.28358943  0.74602793  1
  F  F4  1  0.46209094  0.23572287  0.99598989  1
  F  F5  1  0.53454908  0.25052377  0.24717009  1
  F  F6  1  0.54797368  0.26597258  0.49740729  1
  F  F7  1  0.46542454  0.20646008  0.74522560  1
  F  F8  1  0.22301622  0.45525381  -0.00083086  1
  F  F9  1  0.21951398  0.54234851  0.24667565  1
  F  F10  1  0.28789505  0.53670905  0.49659393  1
  F  F11  1  0.22240364  0.50844937  0.74897404  1
  F  F12  1  0.96750282  0.78906124  0.99536761  1
  F  F13  1  0.04566856  0.73049468  0.24498962  1
  F  F14  1  0.96484867  0.78651376  0.49433464  1
  F  F15  1  0.97896750  0.77252607  0.74312363  1
  F  F16  1  0.74027496  0.49228964  0.99848059  1
  F  F17  1  0.73204720  0.45663640  0.24596379  1
  F  F18  1  0.72374391  0.47033223  0.49290350  1
  F  F19  1  0.78339102  0.46657114  0.74270935  1
  F  F20  1  0.45000880  0.72544132  0.99481904  1
  F  F21  1  0.52371606  0.72583824  0.24264757  1
  F  F22  1  0.47159141  0.71021773  0.49321328  1
  F  F23  1  0.49272623  0.79155106  0.74571639  1
  F  F24  1  0.25021574  0.99297039  0.99403858  1
  F  F25  1  0.21143485  0.03654247  0.24479883  1
  F  F26  1  0.22983330  0.02215200  0.49812325  1
  F  F27  1  0.29099497  0.03383004  0.74569423  1
  F  F28  1  0.79090096  0.96445533  0.99514470  1
  F  F29  1  0.72157734  0.97855998  0.24477302  1
  F  F30  1  0.79440823  0.96545325  0.49668808  1
  F  F31  1  0.76675107  0.97071666  0.74318738  1
  F  F32  1  0.15884619  0.16408228  0.11801577  1
  F  F33  1  0.14969818  0.15163554  0.38662045  1
  F  F34  1  0.15433806  0.14942315  0.61867102  1
  F  F35  1  0.15527822  0.15537591  0.87459515  1
  F  F36  1  0.61579018  0.11960602  0.13956485  1
  F  F37  1  0.62523819  0.13190568  0.35528784  1
  F  F38  1  0.64473461  0.15085241  0.64255347  1
  F  F39  1  0.59894681  0.10434316  0.89149845  1
  F  F40  1  0.38008280  0.38808460  0.15427411  1
  F  F41  1  0.41638935  0.41806938  0.38590905  1
  F  F42  1  0.37897590  0.37997989  0.65769827  1
  F  F43  1  0.33648899  0.33451788  0.86573974  1
  F  F44  1  0.16576580  0.66425309  0.11227984  1
  F  F45  1  0.12479988  0.62155059  0.39964034  1
  F  F46  1  0.15041685  0.64240137  0.63949646  1
  F  F47  1  0.14313367  0.63930109  0.87159296  1
  F  F48  1  0.86945474  0.37619916  0.09950111  1
  F  F49  1  0.86700811  0.37809130  0.38954032  1
  F  F50  1  0.84190726  0.34125397  0.61460959  1
  F  F51  1  0.86945806  0.36758941  0.90532011  1
  F  F52  1  0.59843552  0.60233650  0.11660918  1
  F  F53  1  0.58892110  0.60273181  0.38543765  1
  F  F54  1  0.60631514  0.60633035  0.65653283  1
  F  F55  1  0.62519506  0.62137972  0.90192122  1
  F  F56  1  0.34391357  0.84903547  0.12224076  1
  F  F57  1  0.37455555  0.88180825  0.41057369  1
  F  F58  1  0.38657931  0.88474790  0.59585881  1
  F  F59  1  0.38923645  0.89061982  0.88182380  1
  F  F60  1  0.87920518  0.87936661  0.15722850  1
  F  F61  1  0.86147735  0.85875086  0.34657884  1
  F  F62  1  0.86920876  0.86986019  0.63394002  1
  F  F63  1  0.84134904  0.84410675  0.86973597  1
  F  F64  1  0.90670257  0.10578887  0.13560394  1
  F  F65  1  0.89381758  0.10188528  0.36788911  1
  F  F66  1  0.89060969  0.09655580  0.63638749  1
  F  F67  1  0.90028794  0.09404420  0.88755198  1
  F  F68  1  0.38029506  0.13320488  0.15956013  1
  F  F69  1  0.37756269  0.12039981  0.40844613  1
  F  F70  1  0.37570390  0.11407467  0.59358583  1
  F  F71  1  0.38517589  0.10534423  0.88098708  1
  F  F72  1  0.11103722  0.39727272  0.15367674  1
  F  F73  1  0.09223143  0.40477270  0.36394493  1
  F  F74  1  0.09358522  0.39602576  0.63572752  1
  F  F75  1  0.09241975  0.40392437  0.86566019  1
  F  F76  1  0.86977169  0.64861369  0.14741601  1
  F  F77  1  0.89634595  0.60636781  0.38355913  1
  F  F78  1  0.84957113  0.64496188  0.63262923  1
  F  F79  1  0.88868092  0.60407010  0.89812935  1
  F  F80  1  0.63462327  0.37749450  0.10277410  1
  F  F81  1  0.65088868  0.35079806  0.37114669  1
  F  F82  1  0.61694672  0.37529523  0.65979497  1
  F  F83  1  0.62685691  0.37270818  0.90711583  1
  F  F84  1  0.38309942  0.62548136  0.14795669  1
  F  F85  1  0.34599873  0.65538911  0.36680335  1
  F  F86  1  0.37341750  0.61378908  0.66034713  1
  F  F87  1  0.37569802  0.62262458  0.84409147  1
  F  F88  1  0.10362488  0.91303009  0.12975883  1
  F  F89  1  0.10936131  0.89417223  0.39583198  1
  F  F90  1  0.08431862  0.90138600  0.62226603  1
  F  F91  1  0.08516932  0.90064731  0.88237246  1
  F  F92  1  0.66320911  0.85137061  0.11953202  1
  F  F93  1  0.63807634  0.85807935  0.40672764  1
  F  F94  1  0.65020988  0.83924378  0.61642333  1
  F  F95  1  0.62070738  0.87702479  0.90840655  1
  Pb  Pb96  1  0.00613297  0.25510721  0.12200289  1
  Pb  Pb97  1  0.00194198  0.24438287  0.37152873  1
  Pb  Pb98  1  0.00049432  0.24915434  0.61950774  1
  Pb  Pb99  1  0.99730895  0.24320323  0.87175905  1
  Pb  Pb100  1  0.49573961  0.25661765  0.12431733  1
  Pb  Pb101  1  0.50083678  0.25754018  0.37995297  1
  Pb  Pb102  1  0.50225527  0.24763541  0.62570032  1
  Pb  Pb103  1  0.49613667  0.24718210  0.87812321  1
  Pb  Pb104  1  0.24928350  0.50047278  0.12268431  1
  Pb  Pb105  1  0.25709060  0.50920689  0.37623375  1
  Pb  Pb106  1  0.24603157  0.49805615  0.62435815  1
  Pb  Pb107  1  0.24557016  0.49709906  0.87530790  1
  Pb  Pb108  1  0.00403347  0.75890123  0.12532419  1
  Pb  Pb109  1  0.00183857  0.75269727  0.37234526  1
  Pb  Pb110  1  0.99987037  0.74543484  0.62080923  1
  Pb  Pb111  1  0.99473182  0.74803527  0.87372727  1
  Pb  Pb112  1  0.75725643  0.50533548  0.12730556  1
  Pb  Pb113  1  0.74476114  0.50376656  0.37115253  1
  Pb  Pb114  1  0.74323528  0.50147322  0.62661212  1
  Pb  Pb115  1  0.75296248  0.50016115  0.87441866  1
  Pb  Pb116  1  0.50262975  0.75046421  0.12163518  1
  Pb  Pb117  1  0.50221810  0.75295652  0.37387394  1
  Pb  Pb118  1  0.49881948  0.74940680  0.62827574  1
  Pb  Pb119  1  0.49798488  0.74672620  0.87399656  1
  Pb  Pb120  1  0.25053554  0.00983168  0.12432550  1
  Pb  Pb121  1  0.24565268  0.00280413  0.37527019  1
  Pb  Pb122  1  0.24984086  0.99971437  0.62355584  1
  Pb  Pb123  1  0.23948143  -0.00067185  0.87206454  1
  Pb  Pb124  1  0.75668025  0.00182776  0.12251966  1
  Pb  Pb125  1  0.75608628  0.99230719  0.37311053  1
  Pb  Pb126  1  0.74758538  0.00263608  0.62169230  1
  Pb  Pb127  1  0.75085594  0.99407481  0.87491242  1
  Tl  Tl128  1  0.99181058  0.98458314  0.98929443  1
  Tl  Tl129  1  0.00212236  0.01139064  0.23550191  1
  Tl  Tl130  1  0.00282065  0.97778772  0.50120343  1
  Tl  Tl131  1  0.97346650  0.97238274  0.72968576  1
  Tl  Tl132  1  0.48741812  0.00164879  0.97392480  1
  Tl  Tl133  1  0.53112382  0.04881965  0.24692396  1
  Tl  Tl134  1  0.46937793  0.99757265  0.49681422  1
  Tl  Tl135  1  0.47698120  0.00780390  0.77003218  1
  Tl  Tl136  1  0.24414524  0.25302903  0.98210330  1
  Tl  Tl137  1  0.23261902  0.22992040  0.23653653  1
  Tl  Tl138  1  0.24316701  0.21323661  0.50147009  1
  Tl  Tl139  1  0.27465249  0.24111854  0.75064919  1
  Tl  Tl140  1  0.99906866  0.47046006  0.98128459  1
  Tl  Tl141  1  0.03119697  0.51060954  0.25481313  1
  Tl  Tl142  1  0.99645312  0.48793533  0.46417602  1
  Tl  Tl143  1  0.01249210  0.47440398  0.74697480  1
  Tl  Tl144  1  0.74620500  0.29332274  0.00418342  1
  Tl  Tl145  1  0.72356577  0.26143839  0.26248817  1
  Tl  Tl146  1  0.74667301  0.28240086  0.48817333  1
  Tl  Tl147  1  0.76086681  0.27004218  0.72472586  1
  Tl  Tl148  1  0.54334926  0.50712474  0.99898512  1
  Tl  Tl149  1  0.50072489  0.52381140  0.23103634  1
  Tl  Tl150  1  0.49934381  0.51289460  0.48780958  1
  Tl  Tl151  1  0.48810543  0.49750989  0.73407769  1
  Tl  Tl152  1  0.26421664  0.77429899  0.01180270  1
  Tl  Tl153  1  0.24929187  0.73297704  0.22871382  1
  Tl  Tl154  1  0.27831439  0.73995017  0.48542990  1
  Tl  Tl155  1  0.25297540  0.70416885  0.75260532  1
  Tl  Tl156  1  0.75959342  0.76972730  0.98601785  1
  Tl  Tl157  1  0.75495776  0.77682570  0.23147745  1
  Tl  Tl158  1  0.75948475  0.77763921  0.50271089  1
  Tl  Tl159  1  0.76420715  0.76726068  0.72601586  1
