# generated using pymatgen
data_TlPbI3
_symmetry_space_group_name_H-M   'P 1'
_cell_length_a   17.88096132
_cell_length_b   17.88096132
_cell_length_c   25.28749900
_cell_angle_alpha   90.00000000
_cell_angle_beta   90.00000000
_cell_angle_gamma   90.00000000
_symmetry_Int_Tables_number   1
_chemical_formula_structural   TlPbI3
_chemical_formula_sum   'Tl32 Pb32 I96'
_cell_volume   8085.14114257
_cell_formula_units_Z   32
loop_
 _symmetry_equiv_pos_site_id
 _symmetry_equiv_pos_as_xyz
  1  'x, y, z'
loop_
 _atom_site_type_symbol
 _atom_site_label
 _atom_site_symmetry_multiplicity
 _atom_site_fract_x
 _atom_site_fract_y
 _atom_site_fract_z
 _atom_site_occupancy
  I  I0  1  0.09267628  0.15108735  0.03462617  1
  I  I1  1  0.16240196  0.10830641  0.21893446  1
  I  I2  1  0.16339723  0.10388688  0.52650484  1
  I  I3  1  0.11780183  0.12123137  0.73782570  1
  I  I4  1  0.58470250  0.15906907  0.01835183  1
  I  I5  1  0.66269856  0.08987506  0.23017818  1
  I  I6  1  0.66824264  0.09142201  0.52378827  1
  I  I7  1  0.59767317  0.14678922  0.71647451  1
  I  I8  1  0.39343829  0.34774915  0.97825161  1
  I  I9  1  0.35202025  0.41540205  0.27414361  1
  I  I10  1  0.37050404  0.39783893  0.46321929  1
  I  I11  1  0.40548158  0.34134350  0.77527561  1
  I  I12  1  0.08060499  0.66009074  0.01836278  1
  I  I13  1  0.15230316  0.60428600  0.21676344  1
  I  I14  1  0.17194331  0.57957951  0.51603212  1
  I  I15  1  0.09699264  0.63535156  0.72480425  1
  I  I16  1  0.89795928  0.34252472  0.97810531  1
  I  I17  1  0.85225577  0.40416277  0.27246238  1
  I  I18  1  0.86266414  0.39309656  0.46222080  1
  I  I19  1  0.89612913  0.34205518  0.77198973  1
  I  I20  1  0.58100387  0.66191754  0.02330645  1
  I  I21  1  0.65625482  0.60937027  0.21835311  1
  I  I22  1  0.66168951  0.60836535  0.52564951  1
  I  I23  1  0.59129564  0.64667268  0.71214065  1
  I  I24  1  0.39115723  0.84899961  0.97355688  1
  I  I25  1  0.35682421  0.89692566  0.28599094  1
  I  I26  1  0.36036330  0.89207073  0.47035458  1
  I  I27  1  0.35391639  0.88373746  0.76070673  1
  I  I28  1  0.88371659  0.85861339  0.98215558  1
  I  I29  1  0.85992371  0.91037084  0.27014895  1
  I  I30  1  0.87025723  0.89668999  0.45502990  1
  I  I31  1  0.88592804  0.84849712  0.76437031  1
  I  I32  1  0.82993253  0.09301508  0.02653342  1
  I  I33  1  0.90833901  0.14657381  0.21981891  1
  I  I34  1  0.91761532  0.15783884  0.50543433  1
  I  I35  1  0.85321814  0.11399749  0.70239010  1
  I  I36  1  0.34320493  0.10806407  0.03182611  1
  I  I37  1  0.41928751  0.16390922  0.22616147  1
  I  I38  1  0.42186302  0.16607774  0.52005019  1
  I  I39  1  0.35589731  0.11549909  0.71411604  1
  I  I40  1  0.14522864  0.40643873  0.97539482  1
  I  I41  1  0.10601769  0.34711661  0.27511202  1
  I  I42  1  0.11383690  0.35338805  0.46434253  1
  I  I43  1  0.14879759  0.40641335  0.77279936  1
  I  I44  1  0.84187890  0.60269803  0.01379035  1
  I  I45  1  0.90331618  0.64451518  0.21757342  1
  I  I46  1  0.92808003  0.66687847  0.51549466  1
  I  I47  1  0.84190743  0.60041623  0.71434304  1
  I  I48  1  0.63521649  0.39750432  0.97220973  1
  I  I49  1  0.61180049  0.35414832  0.28425469  1
  I  I50  1  0.61643055  0.35929105  0.46589957  1
  I  I51  1  0.65079925  0.40787940  0.76593614  1
  I  I52  1  0.32672757  0.59044639  0.01501027  1
  I  I53  1  0.40624095  0.64740993  0.21831131  1
  I  I54  1  0.41745258  0.66324488  0.51270924  1
  I  I55  1  0.33364338  0.58462320  0.73823932  1
  I  I56  1  0.14139326  0.91487761  0.97864679  1
  I  I57  1  0.10333496  0.84197343  0.27236376  1
  I  I58  1  0.11923815  0.85843640  0.45642028  1
  I  I59  1  0.11618786  0.87603963  0.76326577  1
  I  I60  1  0.63437291  0.89765207  0.97212996  1
  I  I61  1  0.60692227  0.85131096  0.27597853  1
  I  I62  1  0.61025927  0.84996977  0.47260663  1
  I  I63  1  0.64004446  0.89919438  0.76921671  1
  I  I64  1  0.00324340  0.95112364  0.12452576  1
  I  I65  1  0.04249384  0.06188489  0.37021173  1
  I  I66  1  0.01543174  0.97595487  0.62017940  1
  I  I67  1  0.98196656  0.04513970  0.87292481  1
  I  I68  1  0.49445525  0.94899502  0.12674886  1
  I  I69  1  0.52784421  0.05338656  0.37673381  1
  I  I70  1  0.50926785  0.95032384  0.62561717  1
  I  I71  1  0.47561158  0.05802841  0.87539270  1
  I  I72  1  0.25252619  0.30598060  0.12926139  1
  I  I73  1  0.28295287  0.19123948  0.37804403  1
  I  I74  1  0.25929779  0.30473751  0.62886782  1
  I  I75  1  0.21468340  0.20868417  0.87909356  1
  I  I76  1  0.99011411  0.44311936  0.12822827  1
  I  I77  1  0.03316436  0.55344648  0.37390957  1
  I  I78  1  0.01214866  0.44388361  0.62224278  1
  I  I79  1  0.97544491  0.51528167  0.87468455  1
  I  I80  1  0.74331953  0.30596746  0.12622180  1
  I  I81  1  0.77524102  0.19799779  0.37160281  1
  I  I82  1  0.75139434  0.31058135  0.61931670  1
  I  I83  1  0.73070502  0.22773056  0.87218187  1
  I  I84  1  0.48958138  0.44895052  0.12718494  1
  I  I85  1  0.53369610  0.56079194  0.37381631  1
  I  I86  1  0.50384855  0.45256777  0.62425559  1
  I  I87  1  0.48053747  0.55279498  0.87695249  1
  I  I88  1  0.23837098  0.80243168  0.12542082  1
  I  I89  1  0.27669182  0.69263119  0.37330735  1
  I  I90  1  0.21823880  0.78553547  0.62196048  1
  I  I91  1  0.22643762  0.70466789  0.87467385  1
  I  I92  1  0.73993921  0.80797149  0.12912844  1
  I  I93  1  0.78396049  0.68854451  0.37333482  1
  I  I94  1  0.74691088  0.80577880  0.62003901  1
  I  I95  1  0.73813385  0.72824341  0.87615957  1
  Pb  Pb96  1  0.98754674  0.00680345  0.99945242  1
  Pb  Pb97  1  0.01162295  0.00240638  0.24963515  1
  Pb  Pb98  1  0.00959108  0.99900340  0.48445694  1
  Pb  Pb99  1  0.97820362  0.00502713  0.74562258  1
  Pb  Pb100  1  0.48382251  0.99884357  0.99386101  1
  Pb  Pb101  1  0.50333137  0.99877213  0.24412640  1
  Pb  Pb102  1  0.52108733  0.00543309  0.49914300  1
  Pb  Pb103  1  0.48819967  0.00538308  0.74997767  1
  Pb  Pb104  1  0.23774262  0.25041454  0.99966710  1
  Pb  Pb105  1  0.26873545  0.25051864  0.25073893  1
  Pb  Pb106  1  0.26188187  0.24523508  0.49734349  1
  Pb  Pb107  1  0.25213516  0.26116422  0.75137279  1
  Pb  Pb108  1  0.99257724  0.49137714  0.00435179  1
  Pb  Pb109  1  0.01513923  0.49820153  0.25149824  1
  Pb  Pb110  1  0.01430876  0.49894480  0.49703555  1
  Pb  Pb111  1  0.97991108  0.49672044  0.74074184  1
  Pb  Pb112  1  0.74321663  0.24479121  0.00774032  1
  Pb  Pb113  1  0.75277076  0.25397034  0.24920847  1
  Pb  Pb114  1  0.75912090  0.25450124  0.49841057  1
  Pb  Pb115  1  0.74366434  0.25289986  0.74016373  1
  Pb  Pb116  1  0.49378848  0.49890019  0.99772298  1
  Pb  Pb117  1  0.50551997  0.50000869  0.24989462  1
  Pb  Pb118  1  0.50885671  0.50523350  0.49197413  1
  Pb  Pb119  1  0.49420900  0.50043423  0.74554479  1
  Pb  Pb120  1  0.24055595  0.74447459  0.99926397  1
  Pb  Pb121  1  0.25862825  0.75541131  0.25031157  1
  Pb  Pb122  1  0.25783432  0.74913186  0.49434728  1
  Pb  Pb123  1  0.24331276  0.74194189  0.74913014  1
  Pb  Pb124  1  0.73661762  0.75146612  0.00738629  1
  Pb  Pb125  1  0.76097884  0.74546940  0.25027909  1
  Pb  Pb126  1  0.77069092  0.74648384  0.49286820  1
  Pb  Pb127  1  0.73863755  0.75117712  0.74006550  1
  Tl  Tl128  1  0.05559807  0.25026795  0.15920584  1
  Tl  Tl129  1  0.96442935  0.25885163  0.39152072  1
  Tl  Tl130  1  0.02938297  0.16893836  0.61656189  1
  Tl  Tl131  1  0.04105811  0.32571782  0.87517735  1
  Tl  Tl132  1  0.44512663  0.25182905  0.09905512  1
  Tl  Tl133  1  0.47146218  0.24647106  0.39942624  1
  Tl  Tl134  1  0.45328681  0.25832241  0.64918385  1
  Tl  Tl135  1  0.54007554  0.24877788  0.90181679  1
  Tl  Tl136  1  0.30548385  0.50534150  0.15142600  1
  Tl  Tl137  1  0.22116190  0.49367324  0.39693119  1
  Tl  Tl138  1  0.19559196  0.49548071  0.65059397  1
  Tl  Tl139  1  0.29010763  0.52548815  0.87790371  1
  Tl  Tl140  1  0.05410707  0.74859233  0.15090821  1
  Tl  Tl141  1  0.97112624  0.74808224  0.39436540  1
  Tl  Tl142  1  0.02537740  0.78413713  0.65800190  1
  Tl  Tl143  1  0.94661633  0.69757613  0.92137815  1
  Tl  Tl144  1  0.80432286  0.49524606  0.15408032  1
  Tl  Tl145  1  0.71303010  0.46743806  0.37180613  1
  Tl  Tl146  1  0.69549040  0.50076864  0.64659089  1
  Tl  Tl147  1  0.78410393  0.41408855  0.87611212  1
  Tl  Tl148  1  0.55179157  0.76323094  0.15633332  1
  Tl  Tl149  1  0.46189191  0.76306219  0.39414077  1
  Tl  Tl150  1  0.56094588  0.75636425  0.59031429  1
  Tl  Tl151  1  0.53483570  0.75382917  0.90965646  1
  Tl  Tl152  1  0.19669375  0.00329992  0.09582977  1
  Tl  Tl153  1  0.23615840  0.98102022  0.38234798  1
  Tl  Tl154  1  0.22573177  0.97203307  0.67237111  1
  Tl  Tl155  1  0.16952940  0.01722341  0.86014140  1
  Tl  Tl156  1  0.80673540  0.00356204  0.15274068  1
  Tl  Tl157  1  0.71345565  0.00778969  0.34846759  1
  Tl  Tl158  1  0.69323188  0.00245896  0.64938034  1
  Tl  Tl159  1  0.77280606  0.91638321  0.87334699  1
