# generated using pymatgen
data_TlSnI3
_symmetry_space_group_name_H-M   'P 1'
_cell_length_a   17.54486356
_cell_length_b   17.54486356
_cell_length_c   24.81218400
_cell_angle_alpha   90.00000000
_cell_angle_beta   90.00000000
_cell_angle_gamma   90.00000000
_symmetry_Int_Tables_number   1
_chemical_formula_structural   TlSnI3
_chemical_formula_sum   'Tl32 Sn32 I96'
_cell_volume   7637.74199428
_cell_formula_units_Z   32
loop_
 _symmetry_equiv_pos_site_id
 _symmetry_equiv_pos_as_xyz
  1  'x, y, z'
loop_
 _atom_site_type_symbol
 _atom_site_label
 _atom_site_symmetry_multiplicity
 _atom_site_fract_x
 _atom_site_fract_y
 _atom_site_fract_z
 _atom_site_occupancy
  I  I0  1  0.15072953  0.09868723  0.03243982  1
  I  I1  1  0.15927021  0.08434124  0.23672096  1
  I  I2  1  0.15921528  0.08583369  0.52422677  1
  I  I3  1  0.15568359  0.08336609  0.72005333  1
  I  I4  1  0.62712117  0.12899728  0.97308970  1
  I  I5  1  0.66312283  0.08076089  0.25064160  1
  I  I6  1  0.66119225  0.08008656  0.51193196  1
  I  I7  1  0.65269871  0.10255317  0.74181107  1
  I  I8  1  0.38221333  0.37972211  0.97042001  1
  I  I9  1  0.34646931  0.39901786  0.26646393  1
  I  I10  1  0.34022887  0.40668205  0.47704636  1
  I  I11  1  0.34288923  0.39588607  0.77463532  1
  I  I12  1  0.15403061  0.60549946  0.98230479  1
  I  I13  1  0.14988473  0.58892604  0.26818842  1
  I  I14  1  0.13687554  0.60105606  0.49354875  1
  I  I15  1  0.16282771  0.59743554  0.77149609  1
  I  I16  1  0.85973339  0.39899011  0.02778262  1
  I  I17  1  0.84744957  0.39248048  0.21867973  1
  I  I18  1  0.83674004  0.39709954  0.49636503  1
  I  I19  1  0.85901318  0.39961418  0.74906560  1
  I  I20  1  0.66227059  0.60754479  0.02193880  1
  I  I21  1  0.67279976  0.57572920  0.23937378  1
  I  I22  1  0.65682130  0.58335130  0.52903453  1
  I  I23  1  0.65857314  0.58630227  0.72222879  1
  I  I24  1  0.34731841  0.90379290  0.03333086  1
  I  I25  1  0.34424528  0.89687179  0.22676728  1
  I  I26  1  0.34650276  0.89793228  0.49530170  1
  I  I27  1  0.34131711  0.91426289  0.75264712  1
  I  I28  1  0.84153009  0.91635812  0.96951841  1
  I  I29  1  0.83678219  0.90529429  0.27819617  1
  I  I30  1  0.83837104  0.90571798  0.47776099  1
  I  I31  1  0.82632118  0.91786489  0.76125495  1
  I  I32  1  0.88258459  0.13687026  0.03907464  1
  I  I33  1  0.88924055  0.14795875  0.21764355  1
  I  I34  1  0.91427279  0.14468739  0.52992469  1
  I  I35  1  0.91665367  0.15012879  0.71953562  1
  I  I36  1  0.38465311  0.13694919  0.97234691  1
  I  I37  1  0.38465614  0.15157151  0.28655853  1
  I  I38  1  0.38537539  0.15384262  0.46432920  1
  I  I39  1  0.41242981  0.15302057  0.78246719  1
  I  I40  1  0.11212296  0.37022829  0.02001661  1
  I  I41  1  0.09601729  0.35591607  0.21839803  1
  I  I42  1  0.08572999  0.35235357  0.52539654  1
  I  I43  1  0.11009902  0.34832955  0.71829723  1
  I  I44  1  0.89148523  0.65978135  0.97040620  1
  I  I45  1  0.89872179  0.66254635  0.27996424  1
  I  I46  1  0.89548418  0.66175757  0.46753947  1
  I  I47  1  0.89947189  0.64632106  0.78247829  1
  I  I48  1  0.62583349  0.37849081  0.97055898  1
  I  I49  1  0.59458583  0.35006198  0.28155841  1
  I  I50  1  0.59008158  0.33049809  0.47329500  1
  I  I51  1  0.60270918  0.34178986  0.78177825  1
  I  I52  1  0.38069513  0.64084676  0.03903477  1
  I  I53  1  0.37475445  0.64377796  0.21903120  1
  I  I54  1  0.41439044  0.64666245  0.52318858  1
  I  I55  1  0.41240507  0.65023407  0.72441888  1
  I  I56  1  0.09346441  0.85213021  0.96998013  1
  I  I57  1  0.09535936  0.85568477  0.28882869  1
  I  I58  1  0.10489916  0.83947039  0.47151547  1
  I  I59  1  0.10077965  0.83753772  0.78227710  1
  I  I60  1  0.59034331  0.84813902  0.03401864  1
  I  I61  1  0.59247123  0.84927008  0.22150414  1
  I  I62  1  0.58828487  0.85178995  0.53010975  1
  I  I63  1  0.59773741  0.84172083  0.71808792  1
  I  I64  1  0.99428508  0.94717007  0.11757175  1
  I  I65  1  0.01842638  0.06789327  0.37570853  1
  I  I66  1  0.99432279  0.94281296  0.61876993  1
  I  I67  1  0.02472233  0.05240415  0.86732126  1
  I  I68  1  0.50326937  0.05458731  0.12222289  1
  I  I69  1  0.53010302  0.96318452  0.37396044  1
  I  I70  1  0.46042377  0.04845581  0.62211826  1
  I  I71  1  0.52836504  0.95975892  0.86990624  1
  I  I72  1  0.31370728  0.24481416  0.12361961  1
  I  I73  1  0.19620516  0.25853031  0.37207498  1
  I  I74  1  0.30099461  0.26055730  0.62156681  1
  I  I75  1  0.18871878  0.25003172  0.87091890  1
  I  I76  1  0.01516745  0.55688436  0.12242398  1
  I  I77  1  0.98331502  0.46639954  0.37050389  1
  I  I78  1  0.96328313  0.54727638  0.62055168  1
  I  I79  1  0.01481445  0.46619649  0.87147376  1
  I  I80  1  0.69593845  0.25557328  0.12330453  1
  I  I81  1  0.77983177  0.21493435  0.37976636  1
  I  I82  1  0.70132059  0.28571560  0.63023931  1
  I  I83  1  0.80607723  0.21239906  0.87505409  1
  I  I84  1  0.50814067  0.44430292  0.11705439  1
  I  I85  1  0.49454133  0.54190303  0.37168576  1
  I  I86  1  0.48379662  0.45039765  0.62550397  1
  I  I87  1  0.52738048  0.56687646  0.87061727  1
  I  I88  1  0.18849221  0.75334604  0.12850103  1
  I  I89  1  0.28855732  0.73012909  0.37730621  1
  I  I90  1  0.20493514  0.77585351  0.62815631  1
  I  I91  1  0.29886943  0.76201762  0.87961071  1
  I  I92  1  0.80491347  0.77668611  0.12179284  1
  I  I93  1  0.69426944  0.73706481  0.37275910  1
  I  I94  1  0.80289136  0.76346297  0.61833693  1
  I  I95  1  0.69705066  0.75745348  0.86908321  1
  Sn  Sn96  1  0.98887570  0.99739394  0.99727344  1
  Sn  Sn97  1  0.01332756  0.00135302  0.26502937  1
  Sn  Sn98  1  0.00875955  0.00446567  0.50194382  1
  Sn  Sn99  1  0.00474126  0.00709964  0.74971724  1
  Sn  Sn100  1  0.49711447  0.99075162  0.01063119  1
  Sn  Sn101  1  0.51289078  0.99339667  0.24982984  1
  Sn  Sn102  1  0.50485156  0.00415265  0.50672506  1
  Sn  Sn103  1  0.49251881  0.00396879  0.75378282  1
  Sn  Sn104  1  0.25175485  0.23291116  0.01146931  1
  Sn  Sn105  1  0.25292928  0.25419125  0.25241216  1
  Sn  Sn106  1  0.25696723  0.25836237  0.49886128  1
  Sn  Sn107  1  0.24632060  0.25267876  0.75632351  1
  Sn  Sn108  1  0.99964187  0.49901790  0.00651009  1
  Sn  Sn109  1  0.00409747  0.49315551  0.24670748  1
  Sn  Sn110  1  0.99410375  0.49621247  0.50306235  1
  Sn  Sn111  1  0.99380598  0.51118648  0.75081161  1
  Sn  Sn112  1  0.75984528  0.24056169  0.99304738  1
  Sn  Sn113  1  0.74948900  0.24787061  0.24014427  1
  Sn  Sn114  1  0.73413162  0.24834381  0.49679138  1
  Sn  Sn115  1  0.74239051  0.25207614  0.74800523  1
  Sn  Sn116  1  0.50590793  0.49766633  0.00042707  1
  Sn  Sn117  1  0.52083041  0.49700072  0.25392560  1
  Sn  Sn118  1  0.50798174  0.49809781  0.50651364  1
  Sn  Sn119  1  0.51052790  0.51171280  0.75392836  1
  Sn  Sn120  1  0.25571229  0.74705327  0.00015476  1
  Sn  Sn121  1  0.24938774  0.75589783  0.25005947  1
  Sn  Sn122  1  0.24864872  0.75212016  0.50119668  1
  Sn  Sn123  1  0.24348960  0.74762077  0.75241225  1
  Sn  Sn124  1  0.75116627  0.76279363  0.00665039  1
  Sn  Sn125  1  0.75322717  0.75539358  0.25730948  1
  Sn  Sn126  1  0.75421873  0.75908237  0.49770738  1
  Sn  Sn127  1  0.74744808  0.76592576  0.75034037  1
  Tl  Tl128  1  0.95882494  0.28775134  0.12566682  1
  Tl  Tl129  1  0.96518759  0.27043326  0.42361220  1
  Tl  Tl130  1  0.06040823  0.20068975  0.62346246  1
  Tl  Tl131  1  0.99033869  0.27055549  0.82219597  1
  Tl  Tl132  1  0.49827459  0.24651518  0.06892988  1
  Tl  Tl133  1  0.44550804  0.30205745  0.37139581  1
  Tl  Tl134  1  0.51085719  0.23961999  0.67449692  1
  Tl  Tl135  1  0.50232995  0.25587955  0.89370655  1
  Tl  Tl136  1  0.23419009  0.56529764  0.13362920  1
  Tl  Tl137  1  0.29574202  0.52960823  0.36552952  1
  Tl  Tl138  1  0.28813249  0.44835814  0.64906480  1
  Tl  Tl139  1  0.20981892  0.44106000  0.90161354  1
  Tl  Tl140  1  0.99281295  0.74992869  0.07535658  1
  Tl  Tl141  1  0.05334409  0.69480019  0.37476438  1
  Tl  Tl142  1  0.01517716  0.73802944  0.57545989  1
  Tl  Tl143  1  0.04432351  0.68710405  0.87477438  1
  Tl  Tl144  1  0.71016482  0.45848104  0.11804819  1
  Tl  Tl145  1  0.79391541  0.55801053  0.36600757  1
  Tl  Tl146  1  0.77251478  0.47287245  0.62471206  1
  Tl  Tl147  1  0.72486898  0.56738713  0.89504544  1
  Tl  Tl148  1  0.44874432  0.78820330  0.12925308  1
  Tl  Tl149  1  0.48044800  0.77700611  0.42338697  1
  Tl  Tl150  1  0.55124663  0.69335908  0.62408789  1
  Tl  Tl151  1  0.49892413  0.76571124  0.83019042  1
  Tl  Tl152  1  0.20071859  0.96310578  0.12806747  1
  Tl  Tl153  1  0.24688653  0.07321303  0.37242509  1
  Tl  Tl154  1  0.27158274  0.97106279  0.62399129  1
  Tl  Tl155  1  0.20039053  0.94494195  0.87050949  1
  Tl  Tl156  1  0.80024987  0.99163088  0.15602455  1
  Tl  Tl157  1  0.72519324  0.01738624  0.37945719  1
  Tl  Tl158  1  0.80056925  0.95892047  0.61489158  1
  Tl  Tl159  1  0.72246134  0.02275992  0.86628850  1
