# generated using pymatgen
data_TlSnBr3
_symmetry_space_group_name_H-M   'P 1'
_cell_length_a   16.45768547
_cell_length_b   16.45768547
_cell_length_c   23.27468200
_cell_angle_alpha   90.00000000
_cell_angle_beta   90.00000000
_cell_angle_gamma   90.00000000
_symmetry_Int_Tables_number   1
_chemical_formula_structural   TlSnBr3
_chemical_formula_sum   'Tl32 Sn32 Br96'
_cell_volume   6304.07356134
_cell_formula_units_Z   32
loop_
 _symmetry_equiv_pos_site_id
 _symmetry_equiv_pos_as_xyz
  1  'x, y, z'
loop_
 _atom_site_type_symbol
 _atom_site_label
 _atom_site_symmetry_multiplicity
 _atom_site_fract_x
 _atom_site_fract_y
 _atom_site_fract_z
 _atom_site_occupancy
  Br  Br0  1  0.94276971  0.27860084  0.99915335  1
  Br  Br1  1  0.04397969  0.24562966  0.24459918  1
  Br  Br2  1  0.94820379  0.22329137  0.49588973  1
  Br  Br3  1  0.05756481  0.27205350  0.75199096  1
  Br  Br4  1  0.55332292  0.25895787  0.98576612  1
  Br  Br5  1  0.43390635  0.26479723  0.23652392  1
  Br  Br6  1  0.55145920  0.24692753  0.48886441  1
  Br  Br7  1  0.43264982  0.22652821  0.74090712  1
  Br  Br8  1  0.23330752  0.54696618  0.01037701  1
  Br  Br9  1  0.23795480  0.43676496  0.25784476  1
  Br  Br10  1  0.23920289  0.55339013  0.50533392  1
  Br  Br11  1  0.23114513  0.44960375  0.75754248  1
  Br  Br12  1  0.05187720  0.72596581  0.99046421  1
  Br  Br13  1  0.92610691  0.76033444  0.23986452  1
  Br  Br14  1  0.04717647  0.73071595  0.49048030  1
  Br  Br15  1  0.94463632  0.76081050  0.74111820  1
  Br  Br16  1  0.72281907  0.44352834  -0.00050608  1
  Br  Br17  1  0.74693256  0.54025399  0.25249540  1
  Br  Br18  1  0.74466395  0.44126467  0.50131902  1
  Br  Br19  1  0.73945109  0.55397323  0.74963767  1
  Br  Br20  1  0.43430178  0.74801838  0.00484562  1
  Br  Br21  1  0.53125354  0.75261086  0.25732284  1
  Br  Br22  1  0.44810572  0.78965094  0.51051455  1
  Br  Br23  1  0.55736339  0.74088487  0.76024247  1
  Br  Br24  1  0.21428485  0.94509679  0.00816206  1
  Br  Br25  1  0.26615133  0.02583883  0.26043929  1
  Br  Br26  1  0.20133586  0.94454458  0.51452652  1
  Br  Br27  1  0.25435368  0.05747438  0.76173078  1
  Br  Br28  1  0.71746611  0.04970743  0.99342980  1
  Br  Br29  1  0.73555002  0.93786976  0.23980650  1
  Br  Br30  1  0.74295260  0.04520730  0.48857902  1
  Br  Br31  1  0.76873642  0.94869672  0.74117455  1
  Br  Br32  1  0.08449400  0.07924221  0.11643059  1
  Br  Br33  1  0.09977606  0.08436589  0.37486687  1
  Br  Br34  1  0.08911508  0.08603994  0.62767304  1
  Br  Br35  1  0.13863547  0.16496527  0.91707146  1
  Br  Br36  1  0.59503839  0.08367787  0.14120224  1
  Br  Br37  1  0.60405804  0.08121997  0.35591247  1
  Br  Br38  1  0.58914073  0.09339186  0.65724839  1
  Br  Br39  1  0.65096518  0.15643043  0.83924481  1
  Br  Br40  1  0.39703987  0.38800922  0.08532380  1
  Br  Br41  1  0.40679372  0.38885090  0.40237204  1
  Br  Br42  1  0.38550595  0.39639132  0.59826048  1
  Br  Br43  1  0.35781985  0.36856264  0.89638611  1
  Br  Br44  1  0.09772905  0.58573628  0.14726418  1
  Br  Br45  1  0.09461483  0.57395783  0.36347458  1
  Br  Br46  1  0.07820112  0.59262914  0.64429362  1
  Br  Br47  1  0.13695596  0.64665217  0.83019549  1
  Br  Br48  1  0.90635228  0.39294742  0.14925019  1
  Br  Br49  1  0.90052194  0.38579364  0.35990947  1
  Br  Br50  1  0.89096424  0.38782701  0.66547510  1
  Br  Br51  1  0.84515554  0.36538632  0.84550947  1
  Br  Br52  1  0.59667375  0.58159864  0.11836478  1
  Br  Br53  1  0.59090061  0.57379934  0.38789535  1
  Br  Br54  1  0.61429008  0.60639898  0.60202834  1
  Br  Br55  1  0.61940266  0.63520267  0.91537165  1
  Br  Br56  1  0.40376488  0.89280627  0.13703770  1
  Br  Br57  1  0.41701064  0.89821685  0.36562625  1
  Br  Br58  1  0.38796358  0.88276534  0.66540593  1
  Br  Br59  1  0.34721766  0.87096535  0.84709388  1
  Br  Br60  1  0.90290258  0.89803088  0.09579664  1
  Br  Br61  1  0.91643870  0.89396387  0.40446898  1
  Br  Br62  1  0.90043795  0.91405925  0.60097283  1
  Br  Br63  1  0.86209803  0.87278121  0.91462872  1
  Br  Br64  1  0.84760437  0.13655841  0.16102666  1
  Br  Br65  1  0.86102439  0.14896535  0.34325599  1
  Br  Br66  1  0.87218476  0.14850824  0.68152501  1
  Br  Br67  1  0.89009372  0.10275569  0.88079596  1
  Br  Br68  1  0.36361210  0.14283292  0.08500367  1
  Br  Br69  1  0.35723759  0.15563172  0.39890468  1
  Br  Br70  1  0.36576551  0.13097158  0.58630743  1
  Br  Br71  1  0.42355244  0.09721423  0.89746758  1
  Br  Br72  1  0.13539227  0.35523814  0.09756964  1
  Br  Br73  1  0.15819409  0.34965997  0.40270186  1
  Br  Br74  1  0.14212954  0.37124765  0.58778536  1
  Br  Br75  1  0.09556800  0.40415906  0.89792329  1
  Br  Br76  1  0.84525245  0.66017310  0.09319345  1
  Br  Br77  1  0.85380046  0.65794499  0.40459163  1
  Br  Br78  1  0.85555842  0.66124570  0.59726414  1
  Br  Br79  1  0.91716049  0.59434938  0.88708750  1
  Br  Br80  1  0.65021568  0.35741963  0.15801621  1
  Br  Br81  1  0.65725907  0.35736416  0.34486769  1
  Br  Br82  1  0.62988114  0.38081419  0.64626331  1
  Br  Br83  1  0.60550862  0.40916422  0.84571258  1
  Br  Br84  1  0.33571638  0.65286099  0.15587076  1
  Br  Br85  1  0.34920778  0.66519452  0.35630814  1
  Br  Br86  1  0.37903932  0.64113666  0.64763499  1
  Br  Br87  1  0.39113959  0.60003033  0.83233569  1
  Br  Br88  1  0.15398157  0.85215044  0.15876640  1
  Br  Br89  1  0.16639242  0.84662765  0.35391740  1
  Br  Br90  1  0.14286876  0.86151926  0.67536673  1
  Br  Br91  1  0.09789410  0.92094107  0.85608801  1
  Br  Br92  1  0.63400532  0.84767727  0.09400946  1
  Br  Br93  1  0.65622072  0.85536858  0.40326582  1
  Br  Br94  1  0.65880940  0.87119154  0.59761455  1
  Br  Br95  1  0.60647708  0.87745738  0.90837194  1
  Sn  Sn96  1  0.99951860  0.25491875  0.12088318  1
  Sn  Sn97  1  0.99635052  0.24585370  0.38116849  1
  Sn  Sn98  1  0.99316210  0.25480764  0.64187300  1
  Sn  Sn99  1  0.00227023  0.25968879  0.88629709  1
  Sn  Sn100  1  0.48473767  0.24984945  0.12237963  1
  Sn  Sn101  1  0.49649237  0.24969003  0.37456867  1
  Sn  Sn102  1  0.49036852  0.22473687  0.62768525  1
  Sn  Sn103  1  0.50752172  0.24011706  0.87005462  1
  Sn  Sn104  1  0.24578067  0.50564057  0.12797524  1
  Sn  Sn105  1  0.24405103  0.49177548  0.37280389  1
  Sn  Sn106  1  0.24814712  0.49511270  0.61999414  1
  Sn  Sn107  1  0.25803170  0.50767497  0.86869970  1
  Sn  Sn108  1  0.98054241  0.75626046  0.12762277  1
  Sn  Sn109  1  0.99226151  0.74586317  0.37542857  1
  Sn  Sn110  1  0.00008543  0.74308240  0.62781481  1
  Sn  Sn111  1  0.00570774  0.73626995  0.87400588  1
  Sn  Sn112  1  0.73976872  0.49080272  0.11667329  1
  Sn  Sn113  1  0.74567070  0.50452984  0.37528270  1
  Sn  Sn114  1  0.74677094  0.49884722  0.62032435  1
  Sn  Sn115  1  0.74460730  0.50399113  0.86717241  1
  Sn  Sn116  1  0.48709669  0.74533243  0.11776351  1
  Sn  Sn117  1  0.49786383  0.74388302  0.37600623  1
  Sn  Sn118  1  0.49369452  0.76232645  0.62518246  1
  Sn  Sn119  1  0.50301911  0.74737264  0.87714463  1
  Sn  Sn120  1  0.23189963  0.99460698  0.12295637  1
  Sn  Sn121  1  0.24601808  0.99418790  0.37718447  1
  Sn  Sn122  1  0.23248752  0.99201551  0.62957673  1
  Sn  Sn123  1  0.24465495  0.00055560  0.87638922  1
  Sn  Sn124  1  0.74601270  0.00189117  0.12684389  1
  Sn  Sn125  1  0.75002788  0.99449256  0.37272997  1
  Sn  Sn126  1  0.75331304  0.00651019  0.62912780  1
  Sn  Sn127  1  0.75373126  0.99768019  0.88031454  1
  Tl  Tl128  1  0.00964487  -0.00931182  0.97341740  1
  Tl  Tl129  1  0.99020744  0.05405990  0.24121099  1
  Tl  Tl130  1  0.01187353  0.02093467  0.50196712  1
  Tl  Tl131  1  0.98240529  0.97004047  0.72801443  1
  Tl  Tl132  1  0.52294758  0.99409210  0.02181184  1
  Tl  Tl133  1  0.53411429  0.96238592  0.24782685  1
  Tl  Tl134  1  0.54153463  0.97527783  0.47590151  1
  Tl  Tl135  1  0.45232663  0.02075141  0.76428689  1
  Tl  Tl136  1  0.26732883  0.27654150  0.00704173  1
  Tl  Tl137  1  0.24934741  0.23225413  0.28899927  1
  Tl  Tl138  1  0.29036434  0.28232213  0.50437326  1
  Tl  Tl139  1  0.24682183  0.25539536  0.79947568  1
  Tl  Tl140  1  0.03555439  0.52314042  0.01362292  1
  Tl  Tl141  1  0.03751706  0.45827566  0.25259149  1
  Tl  Tl142  1  0.04451867  0.53045535  0.50686395  1
  Tl  Tl143  1  0.02485875  0.48286324  0.77254732  1
  Tl  Tl144  1  0.75217172  0.24464856  0.95013207  1
  Tl  Tl145  1  0.79779552  0.29322511  0.24773592  1
  Tl  Tl146  1  0.75459774  0.24689006  0.45162840  1
  Tl  Tl147  1  0.74551849  0.28025230  0.74004629  1
  Tl  Tl148  1  0.52503601  0.45879860  0.97617560  1
  Tl  Tl149  1  0.56015587  0.48084362  0.24896920  1
  Tl  Tl150  1  0.54174064  0.45302155  0.50992271  1
  Tl  Tl151  1  0.53337463  0.54278010  0.72841186  1
  Tl  Tl152  1  0.23783191  0.74960675  0.04623945  1
  Tl  Tl153  1  0.30438033  0.80605372  0.25352348  1
  Tl  Tl154  1  0.25136341  0.75646186  0.46836843  1
  Tl  Tl155  1  0.27867465  0.74807691  0.74786053  1
  Tl  Tl156  1  0.73747624  0.76258056  0.99046147  1
  Tl  Tl157  1  0.73493791  0.73459839  0.20394326  1
  Tl  Tl158  1  0.79846401  0.79970517  0.50082179  1
  Tl  Tl159  1  0.74646570  0.75262989  0.70279121  1
