# generated using pymatgen
data_SrTlF3
_symmetry_space_group_name_H-M   'P 1'
_cell_length_a   13.48490391
_cell_length_b   13.48490391
_cell_length_c   19.07053300
_cell_angle_alpha   90.00000000
_cell_angle_beta   90.00000000
_cell_angle_gamma   90.00000000
_symmetry_Int_Tables_number   1
_chemical_formula_structural   SrTlF3
_chemical_formula_sum   'Sr32 Tl32 F96'
_cell_volume   3467.83594340
_cell_formula_units_Z   32
loop_
 _symmetry_equiv_pos_site_id
 _symmetry_equiv_pos_as_xyz
  1  'x, y, z'
loop_
 _atom_site_type_symbol
 _atom_site_label
 _atom_site_symmetry_multiplicity
 _atom_site_fract_x
 _atom_site_fract_y
 _atom_site_fract_z
 _atom_site_occupancy
  F  F0  1  0.15386457  0.10187511  0.99053031  1
  F  F1  1  0.11266404  0.13275512  0.28605396  1
  F  F2  1  0.14998429  0.09688566  0.49309290  1
  F  F3  1  0.13281514  0.11860286  0.73777475  1
  F  F4  1  0.61117669  0.14567383  0.01251522  1
  F  F5  1  0.62703588  0.11497439  0.24057707  1
  F  F6  1  0.65186366  0.09268562  0.51431359  1
  F  F7  1  0.62237799  0.13207032  0.72447577  1
  F  F8  1  0.40075318  0.35236849  0.00497155  1
  F  F9  1  0.37313728  0.37298962  0.27217388  1
  F  F10  1  0.36200148  0.38443665  0.46942082  1
  F  F11  1  0.41216778  0.34041315  0.75679298  1
  F  F12  1  0.15190336  0.60037592  0.01479832  1
  F  F13  1  0.12251538  0.62665791  0.23067006  1
  F  F14  1  0.13558776  0.61683246  0.47129257  1
  F  F15  1  0.12068839  0.62556851  0.76506072  1
  F  F16  1  0.87139599  0.38356919  0.02253596  1
  F  F17  1  0.90003822  0.34624774  0.24614339  1
  F  F18  1  0.85718592  0.38858390  0.51708016  1
  F  F19  1  0.91008238  0.34031249  0.74127691  1
  F  F20  1  0.61839177  0.63769466  0.97761671  1
  F  F21  1  0.58974358  0.65639577  0.24461707  1
  F  F22  1  0.65325819  0.59131655  0.51109142  1
  F  F23  1  0.61517588  0.63297726  0.77684654  1
  F  F24  1  0.38026466  0.87400321  0.98087398  1
  F  F25  1  0.41010361  0.83776049  0.24234996  1
  F  F26  1  0.36111563  0.88748579  0.53472219  1
  F  F27  1  0.36841430  0.88147890  0.72716990  1
  F  F28  1  0.88146458  0.87677648  0.99216080  1
  F  F29  1  0.88689852  0.85899881  0.23364075  1
  F  F30  1  0.87197241  0.87253056  0.47994640  1
  F  F31  1  0.90635092  0.84414130  0.75464840  1
  F  F32  1  0.89627848  0.14752738  0.97936935  1
  F  F33  1  0.84774253  0.09757587  0.26448345  1
  F  F34  1  0.90131654  0.15797755  0.49532260  1
  F  F35  1  0.87120664  0.12082629  0.78033976  1
  F  F36  1  0.37843873  0.12690321  0.03268509  1
  F  F37  1  0.34339298  0.09534323  0.23460844  1
  F  F38  1  0.40625044  0.15603319  0.51116195  1
  F  F39  1  0.37403171  0.12004094  0.71764518  1
  F  F40  1  0.10310977  0.34884056  0.00233399  1
  F  F41  1  0.13147044  0.37899433  0.28693826  1
  F  F42  1  0.10039661  0.34863005  0.48327379  1
  F  F43  1  0.16195751  0.40618804  0.75200107  1
  F  F44  1  0.88968287  0.63719070  0.00051465  1
  F  F45  1  0.87965624  0.62753337  0.22623734  1
  F  F46  1  0.86872494  0.61842783  0.49793971  1
  F  F47  1  0.84704398  0.59241019  0.75723955  1
  F  F48  1  0.62928181  0.38199001  0.02744046  1
  F  F49  1  0.64293331  0.39355983  0.22998237  1
  F  F50  1  0.59304912  0.34705039  0.49886538  1
  F  F51  1  0.65625848  0.40499627  0.74671329  1
  F  F52  1  0.38894226  0.63642077  0.96653240  1
  F  F53  1  0.35866272  0.61035720  0.27708933  1
  F  F54  1  0.40131124  0.65398510  0.49586866  1
  F  F55  1  0.34448681  0.59251118  0.75545488  1
  F  F56  1  0.14078092  0.88593779  0.00414473  1
  F  F57  1  0.11798572  0.86810735  0.22969875  1
  F  F58  1  0.09297521  0.84867173  0.50833267  1
  F  F59  1  0.12979540  0.87911712  0.71538217  1
  F  F60  1  0.62667798  0.87545667  0.97381129  1
  F  F61  1  0.65151089  0.90085916  0.26079127  1
  F  F62  1  0.58671218  0.84121810  0.49979188  1
  F  F63  1  0.64854564  0.89414023  0.76404464  1
  F  F64  1  0.02591816  0.03615885  0.12663878  1
  F  F65  1  0.02430108  0.96530778  0.37610525  1
  F  F66  1  0.97197809  0.97842699  0.62496550  1
  F  F67  1  0.03118162  0.96887408  0.87533040  1
  F  F68  1  0.53320970  0.97130373  0.12560467  1
  F  F69  1  0.50947876  0.02501503  0.37526118  1
  F  F70  1  0.53440156  0.97087108  0.62514467  1
  F  F71  1  0.52311332  0.02306988  0.87446881  1
  F  F72  1  0.21318238  0.23108363  0.12803176  1
  F  F73  1  0.27877405  0.21306162  0.37863464  1
  F  F74  1  0.27746566  0.28143358  0.62490609  1
  F  F75  1  0.28641660  0.25129285  0.87537546  1
  F  F76  1  0.03198687  0.46978414  0.12753095  1
  F  F77  1  0.95519743  0.48071876  0.37433166  1
  F  F78  1  0.99246995  0.49347778  0.62124305  1
  F  F79  1  0.02051524  0.48086385  0.87415669  1
  F  F80  1  0.76151321  0.26363096  0.12324067  1
  F  F81  1  0.72584600  0.22887309  0.37392737  1
  F  F82  1  0.78002451  0.22472154  0.62393157  1
  F  F83  1  0.77494979  0.29048978  0.87314291  1
  F  F84  1  0.47878101  0.53318443  0.12444362  1
  F  F85  1  0.51073449  0.52250794  0.37574833  1
  F  F86  1  0.45782030  0.48752321  0.62703380  1
  F  F87  1  0.52038612  0.45997837  0.87589185  1
  F  F88  1  0.27839463  0.71724528  0.12579877  1
  F  F89  1  0.27020192  0.78185788  0.37580608  1
  F  F90  1  0.24963814  0.70833332  0.62447875  1
  F  F91  1  0.22986488  0.77530787  0.87389615  1
  F  F92  1  0.71433401  0.77822711  0.12710875  1
  F  F93  1  0.75258176  0.70801440  0.37559931  1
  F  F94  1  0.76361470  0.73351695  0.62450924  1
  F  F95  1  0.77547761  0.77463686  0.87615385  1
  Sr  Sr96  1  0.00128602  0.00595376  0.00270513  1
  Sr  Sr97  1  0.99674824  0.00161924  0.24979941  1
  Sr  Sr98  1  0.99380181  0.00621248  0.50054626  1
  Sr  Sr99  1  0.99869008  0.00183489  0.75103923  1
  Sr  Sr100  1  0.50131771  0.00195825  0.00089513  1
  Sr  Sr101  1  0.49022183  0.99722032  0.24983293  1
  Sr  Sr102  1  0.49791230  0.00003917  0.50024473  1
  Sr  Sr103  1  0.50204431  0.00038247  0.75020168  1
  Sr  Sr104  1  0.25004116  0.25104874  0.00064712  1
  Sr  Sr105  1  0.24845005  0.24539716  0.25312624  1
  Sr  Sr106  1  0.24703920  0.24910108  0.50228784  1
  Sr  Sr107  1  0.25188818  0.24978364  0.74996633  1
  Sr  Sr108  1  0.00313743  0.50108507  0.99959592  1
  Sr  Sr109  1  0.99734376  0.49651654  0.25130508  1
  Sr  Sr110  1  0.00730281  0.50125963  0.49473034  1
  Sr  Sr111  1  0.99831265  0.49630795  0.74832784  1
  Sr  Sr112  1  0.75328001  0.25223848  0.99677693  1
  Sr  Sr113  1  0.74819979  0.24898983  0.24889836  1
  Sr  Sr114  1  0.74232694  0.24730030  0.49834713  1
  Sr  Sr115  1  0.75215408  0.25270783  0.74831380  1
  Sr  Sr116  1  0.49966613  0.50501773  0.00019593  1
  Sr  Sr117  1  0.50009405  0.49809578  0.24835809  1
  Sr  Sr118  1  0.49708984  0.49980347  0.50229372  1
  Sr  Sr119  1  0.50070614  0.49897425  0.75062813  1
  Sr  Sr120  1  0.25490409  0.74653050  0.99984147  1
  Sr  Sr121  1  0.25207803  0.75382613  0.25131074  1
  Sr  Sr122  1  0.24700239  0.75062484  0.49943093  1
  Sr  Sr123  1  0.24787996  0.75010507  0.74932199  1
  Sr  Sr124  1  0.75413171  0.75058089  0.00491118  1
  Sr  Sr125  1  0.74664308  0.74526004  0.25116088  1
  Sr  Sr126  1  0.74125673  0.75281239  0.49934567  1
  Sr  Sr127  1  0.75130661  0.74683096  0.75046593  1
  Tl  Tl128  1  0.00035722  0.27492111  0.10836435  1
  Tl  Tl129  1  0.00056202  0.27418926  0.36458186  1
  Tl  Tl130  1  0.96502252  0.27604556  0.60455314  1
  Tl  Tl131  1  0.96548873  0.24915630  0.86614255  1
  Tl  Tl132  1  0.50808571  0.24995173  0.09746965  1
  Tl  Tl133  1  0.47693245  0.25502573  0.39816247  1
  Tl  Tl134  1  0.47192855  0.25214580  0.63355780  1
  Tl  Tl135  1  0.47679160  0.27117913  0.87666626  1
  Tl  Tl136  1  0.22720154  0.53100838  0.13014145  1
  Tl  Tl137  1  0.26866013  0.48527710  0.36412271  1
  Tl  Tl138  1  0.26114087  0.51218383  0.64237628  1
  Tl  Tl139  1  0.21611173  0.51684660  0.85709017  1
  Tl  Tl140  1  0.99917922  0.74941293  0.15553599  1
  Tl  Tl141  1  0.99482956  0.77643320  0.40193572  1
  Tl  Tl142  1  0.99978987  0.78849197  0.63321147  1
  Tl  Tl143  1  0.97193255  0.77597894  0.88494028  1
  Tl  Tl144  1  0.74954020  0.45732325  0.12049908  1
  Tl  Tl145  1  0.75840083  0.51931332  0.40172539  1
  Tl  Tl146  1  0.78315989  0.52943560  0.61133469  1
  Tl  Tl147  1  0.72605866  0.50531333  0.85410326  1
  Tl  Tl148  1  0.50276482  0.74383645  0.13813049  1
  Tl  Tl149  1  0.47516358  0.71957163  0.36605152  1
  Tl  Tl150  1  0.47862481  0.77684110  0.60504754  1
  Tl  Tl151  1  0.50872581  0.75143346  0.89795766  1
  Tl  Tl152  1  0.23013733  0.03233533  0.11549724  1
  Tl  Tl153  1  0.21950246  0.02477378  0.37456806  1
  Tl  Tl154  1  0.25330372  0.99793467  0.64592417  1
  Tl  Tl155  1  0.22744910  0.97157508  0.89715013  1
  Tl  Tl156  1  0.72245711  0.98501134  0.15061089  1
  Tl  Tl157  1  0.71803739  0.02991773  0.35888141  1
  Tl  Tl158  1  0.72209701  0.02568920  0.63133407  1
  Tl  Tl159  1  0.72552976  0.96931535  0.87625924  1
