# generated using pymatgen
data_TlZnBr3
_symmetry_space_group_name_H-M   'P 1'
_cell_length_a   14.88948527
_cell_length_b   14.88948527
_cell_length_c   21.05691200
_cell_angle_alpha   90.00000000
_cell_angle_beta   90.00000000
_cell_angle_gamma   90.00000000
_symmetry_Int_Tables_number   1
_chemical_formula_structural   TlZnBr3
_chemical_formula_sum   'Tl32 Zn32 Br96'
_cell_volume   4668.24940790
_cell_formula_units_Z   32
loop_
 _symmetry_equiv_pos_site_id
 _symmetry_equiv_pos_as_xyz
  1  'x, y, z'
loop_
 _atom_site_type_symbol
 _atom_site_label
 _atom_site_symmetry_multiplicity
 _atom_site_fract_x
 _atom_site_fract_y
 _atom_site_fract_z
 _atom_site_occupancy
  Tl  Tl0  1  0.01580634  0.95168496  0.02484886  1
  Tl  Tl1  1  0.01602718  0.02094365  0.21139914  1
  Tl  Tl2  1  0.89993840  0.03088374  0.51688118  1
  Tl  Tl3  1  0.02936117  0.04048229  0.78748992  1
  Tl  Tl4  1  0.53512693  0.97406229  0.94940267  1
  Tl  Tl5  1  0.56561178  0.00282072  0.24493004  1
  Tl  Tl6  1  0.48660957  0.92407149  0.53573345  1
  Tl  Tl7  1  0.44170031  0.04949870  0.75229259  1
  Tl  Tl8  1  0.24987488  0.24455388  0.99591433  1
  Tl  Tl9  1  0.25601889  0.20782305  0.23028203  1
  Tl  Tl10  1  0.29946339  0.22767352  0.47264672  1
  Tl  Tl11  1  0.26834066  0.23018886  0.71953269  1
  Tl  Tl12  1  0.02008229  0.52617179  0.02013774  1
  Tl  Tl13  1  0.02845469  0.44109094  0.24931239  1
  Tl  Tl14  1  0.98639979  0.49954532  0.47014366  1
  Tl  Tl15  1  0.04943318  0.47663995  0.78207801  1
  Tl  Tl16  1  0.71897089  0.22382328  0.00743692  1
  Tl  Tl17  1  0.80265941  0.19881431  0.23087235  1
  Tl  Tl18  1  0.72672595  0.31391970  0.50745468  1
  Tl  Tl19  1  0.70994612  0.26689694  0.76231786  1
  Tl  Tl20  1  0.46244313  0.55040200  0.01727168  1
  Tl  Tl21  1  0.50369852  0.55244022  0.30740585  1
  Tl  Tl22  1  0.51131655  0.53101940  0.51795732  1
  Tl  Tl23  1  0.46995217  0.49464821  0.77551792  1
  Tl  Tl24  1  0.25612493  0.75250018  0.98450627  1
  Tl  Tl25  1  0.31592202  0.83571800  0.25900370  1
  Tl  Tl26  1  0.20272496  0.76157424  0.54981138  1
  Tl  Tl27  1  0.24522195  0.76471403  0.77608563  1
  Tl  Tl28  1  0.74021408  0.74014044  0.97667043  1
  Tl  Tl29  1  0.77943280  0.73010629  0.22451841  1
  Tl  Tl30  1  0.77247505  0.74808156  0.48471672  1
  Tl  Tl31  1  0.71257530  0.75725701  0.71438012  1
  Zn  Zn32  1  0.96498190  0.28183824  0.07380354  1
  Zn  Zn33  1  0.98753998  0.18989512  0.38134428  1
  Zn  Zn34  1  0.00368704  0.25243926  0.59643025  1
  Zn  Zn35  1  0.98739019  0.23037821  0.89023596  1
  Zn  Zn36  1  0.52298833  0.28489970  0.14752565  1
  Zn  Zn37  1  0.48802428  0.27381034  0.35711416  1
  Zn  Zn38  1  0.53967267  0.21412084  0.58960564  1
  Zn  Zn39  1  0.50958930  0.26849221  0.88745872  1
  Zn  Zn40  1  0.28262208  0.54733379  0.15971360  1
  Zn  Zn41  1  0.25826998  0.47164739  0.35459693  1
  Zn  Zn42  1  0.20794406  0.47655059  0.59343672  1
  Zn  Zn43  1  0.27157013  0.46299149  0.87232675  1
  Zn  Zn44  1  0.04812872  0.70579945  0.15676139  1
  Zn  Zn45  1  0.03146565  0.75737951  0.35545455  1
  Zn  Zn46  1  0.01666687  0.68100164  0.64862896  1
  Zn  Zn47  1  0.97320932  0.76020612  0.83534017  1
  Zn  Zn48  1  0.73872034  0.47513531  0.11226137  1
  Zn  Zn49  1  0.75992015  0.48523091  0.33249390  1
  Zn  Zn50  1  0.79465324  0.49369422  0.63850641  1
  Zn  Zn51  1  0.74633078  0.53246007  0.82269243  1
  Zn  Zn52  1  0.52421730  0.76542775  0.12917445  1
  Zn  Zn53  1  0.56309275  0.81705485  0.36191827  1
  Zn  Zn54  1  0.43796570  0.71873263  0.60478899  1
  Zn  Zn55  1  0.54956604  0.72662713  0.86737037  1
  Zn  Zn56  1  0.25950961  0.00704988  0.11033961  1
  Zn  Zn57  1  0.18428150  0.97136171  0.40706957  1
  Zn  Zn58  1  0.17289781  0.02315060  0.59920523  1
  Zn  Zn59  1  0.27786762  0.99091239  0.89405473  1
  Zn  Zn60  1  0.74479662  0.93544442  0.09477390  1
  Zn  Zn61  1  0.71485447  0.03871621  0.38516136  1
  Zn  Zn62  1  0.71834632  0.98894791  0.65763330  1
  Zn  Zn63  1  0.75888112  0.00151898  0.85769790  1
  Br  Br64  1  0.91884593  0.33353441  0.96802634  1
  Br  Br65  1  0.03563126  0.22055322  0.27563137  1
  Br  Br66  1  0.94283650  0.26938629  0.48237544  1
  Br  Br67  1  0.05050531  0.25965212  0.78705371  1
  Br  Br68  1  0.49727341  0.17887373  0.98092933  1
  Br  Br69  1  0.53973416  0.34359783  0.25719834  1
  Br  Br70  1  0.53452136  0.21107775  0.47203225  1
  Br  Br71  1  0.47978475  0.26740173  0.77455492  1
  Br  Br72  1  0.24497393  0.54111389  0.04931257  1
  Br  Br73  1  0.24985618  0.42499550  0.23922945  1
  Br  Br74  1  0.19717856  0.55883807  0.49836595  1
  Br  Br75  1  0.26414958  0.43279858  0.76004239  1
  Br  Br76  1  0.05798510  0.73250384  0.04372197  1
  Br  Br77  1  0.99017454  0.80707315  0.24495306  1
  Br  Br78  1  0.98150164  0.69580259  0.54032419  1
  Br  Br79  1  0.01497190  0.80887486  0.72706053  1
  Br  Br80  1  0.79907141  0.53839819  0.01727883  1
  Br  Br81  1  0.69949821  0.52376678  0.22296562  1
  Br  Br82  1  0.76244506  0.53147637  0.53174767  1
  Br  Br83  1  0.67201118  0.52856934  0.71709375  1
  Br  Br84  1  0.48761753  0.75819437  0.96864582  1
  Br  Br85  1  0.53777499  0.76079535  0.24884043  1
  Br  Br86  1  0.39260839  0.73074410  0.49359801  1
  Br  Br87  1  0.49954133  0.70924146  0.76280633  1
  Br  Br88  1  0.32943956  0.97944422  0.00686805  1
  Br  Br89  1  0.19949541  0.01216907  0.29790452  1
  Br  Br90  1  0.28020201  0.99067704  0.50461210  1
  Br  Br91  1  0.21615870  0.00913262  0.70939048  1
  Br  Br92  1  0.75132521  0.00884501  0.98866286  1
  Br  Br93  1  0.78203419  0.98846570  0.19899555  1
  Br  Br94  1  0.68022959  0.00656872  0.49093346  1
  Br  Br95  1  0.82021494  0.97087461  0.75131320  1
  Br  Br96  1  0.15196408  0.12601368  0.10895542  1
  Br  Br97  1  0.09092685  0.09683829  0.44345953  1
  Br  Br98  1  0.15931864  0.18701606  0.58839344  1
  Br  Br99  1  0.07800924  0.12321416  0.94335722  1
  Br  Br100  1  0.62024441  0.15815154  0.14161287  1
  Br  Br101  1  0.64630918  0.16179684  0.33166784  1
  Br  Br102  1  0.68758629  0.14512077  0.62846992  1
  Br  Br103  1  0.62243795  0.08900657  0.83477984  1
  Br  Br104  1  0.37188790  0.29710208  0.11667809  1
  Br  Br105  1  0.39978097  0.40017988  0.40616697  1
  Br  Br106  1  0.31957590  0.36368535  0.59477854  1
  Br  Br107  1  0.39443404  0.38409796  0.92761177  1
  Br  Br108  1  0.18598493  0.66054126  0.21033409  1
  Br  Br109  1  0.06321169  0.60147821  0.35319278  1
  Br  Br110  1  0.16122982  0.61148870  0.67248567  1
  Br  Br111  1  0.08224049  0.65759044  0.87405021  1
  Br  Br112  1  0.85357260  0.36487732  0.14503772  1
  Br  Br113  1  0.86435712  0.36344892  0.33498996  1
  Br  Br114  1  0.83667431  0.34041560  0.64423788  1
  Br  Br115  1  0.85243267  0.41588659  0.82284506  1
  Br  Br116  1  0.63530866  0.66301979  0.09650491  1
  Br  Br117  1  0.59403481  0.68018749  0.41235203  1
  Br  Br118  1  0.60025282  0.71295765  0.58994483  1
  Br  Br119  1  0.62070356  0.57691202  0.89336348  1
  Br  Br120  1  0.36846550  0.77522733  0.11487269  1
  Br  Br121  1  0.45153032  0.92548625  0.37794222  1
  Br  Br122  1  0.35668898  0.84082745  0.65269903  1
  Br  Br123  1  0.38908396  0.89357408  0.84458739  1
  Br  Br124  1  0.85468893  0.81884986  0.08793427  1
  Br  Br125  1  0.93535545  0.85249577  0.41386991  1
  Br  Br126  1  0.81371975  0.88160061  0.60288003  1
  Br  Br127  1  0.91175971  0.88594600  0.89603610  1
  Br  Br128  1  0.90896042  0.13493950  0.09295016  1
  Br  Br129  1  0.87495587  0.07151353  0.35472956  1
  Br  Br130  1  0.93693051  0.13017375  0.65130800  1
  Br  Br131  1  0.84300263  0.15450116  0.86407544  1
  Br  Br132  1  0.38130550  0.03596024  0.17990036  1
  Br  Br133  1  0.38915585  0.15150552  0.34034289  1
  Br  Br134  1  0.41210353  0.12524990  0.61162203  1
  Br  Br135  1  0.29677343  0.14160728  0.86084208  1
  Br  Br136  1  0.09890204  0.35471935  0.10508002  1
  Br  Br137  1  0.14853899  0.36881483  0.39582195  1
  Br  Br138  1  0.05649748  0.40666369  0.61968034  1
  Br  Br139  1  0.13732044  0.40862837  0.91931523  1
  Br  Br140  1  0.93306694  0.59254490  0.16523198  1
  Br  Br141  1  0.82488203  0.62621509  0.35951587  1
  Br  Br142  1  0.89698920  0.59369104  0.69644002  1
  Br  Br143  1  0.82966742  0.67304740  0.84562382  1
  Br  Br144  1  0.60354810  0.39464808  0.07515976  1
  Br  Br145  1  0.63846173  0.43017130  0.39811923  1
  Br  Br146  1  0.57415645  0.36392336  0.61841743  1
  Br  Br147  1  0.64966116  0.34857275  0.89582320  1
  Br  Br148  1  0.44170376  0.54897693  0.16608183  1
  Br  Br149  1  0.31524488  0.61975538  0.35043604  1
  Br  Br150  1  0.39460527  0.57316873  0.64279254  1
  Br  Br151  1  0.33069122  0.61358270  0.87724222  1
  Br  Br152  1  0.16351181  0.88701755  0.14292001  1
  Br  Br153  1  0.18308089  0.80931348  0.39682431  1
  Br  Br154  1  0.05705673  0.92122269  0.57621747  1
  Br  Br155  1  0.14626659  0.90022787  0.88728557  1
  Br  Br156  1  0.58052124  0.91741324  0.09922719  1
  Br  Br157  1  0.71247731  0.88376706  0.34133049  1
  Br  Br158  1  0.57822855  0.92236742  0.68180444  1
  Br  Br159  1  0.66169854  0.85115605  0.85323063  1
