# generated using pymatgen
data_TlZnCl3
_symmetry_space_group_name_H-M   'P 1'
_cell_length_a   14.03861943
_cell_length_b   14.03861943
_cell_length_c   19.85360500
_cell_angle_alpha   90.00000000
_cell_angle_beta   90.00000000
_cell_angle_gamma   90.00000000
_symmetry_Int_Tables_number   1
_chemical_formula_structural   TlZnCl3
_chemical_formula_sum   'Tl32 Zn32 Cl96'
_cell_volume   3912.80477031
_cell_formula_units_Z   32
loop_
 _symmetry_equiv_pos_site_id
 _symmetry_equiv_pos_as_xyz
  1  'x, y, z'
loop_
 _atom_site_type_symbol
 _atom_site_label
 _atom_site_symmetry_multiplicity
 _atom_site_fract_x
 _atom_site_fract_y
 _atom_site_fract_z
 _atom_site_occupancy
  Cl  Cl0  1  0.03877759  0.25617413  0.99525297  1
  Cl  Cl1  1  0.95451331  0.24032479  0.25110776  1
  Cl  Cl2  1  0.03632865  0.25274125  0.51933735  1
  Cl  Cl3  1  0.95969182  0.23526709  0.72702003  1
  Cl  Cl4  1  0.49200569  0.22327513  0.01012333  1
  Cl  Cl5  1  0.49755056  0.22595311  0.21831432  1
  Cl  Cl6  1  0.50138956  0.24256196  0.49568730  1
  Cl  Cl7  1  0.48993366  0.31293827  0.76362415  1
  Cl  Cl8  1  0.21683461  0.48851260  0.01719296  1
  Cl  Cl9  1  0.23632137  0.51114559  0.23593806  1
  Cl  Cl10  1  0.20446057  0.47374617  0.50834977  1
  Cl  Cl11  1  0.30987006  0.49143290  0.74497334  1
  Cl  Cl12  1  0.99764373  0.76202795  0.00685538  1
  Cl  Cl13  1  0.00461263  0.79838735  0.24459194  1
  Cl  Cl14  1  0.01417271  0.71476184  0.51939500  1
  Cl  Cl15  1  0.99794239  0.75073922  0.73326370  1
  Cl  Cl16  1  0.72758784  0.56319608  0.01273668  1
  Cl  Cl17  1  0.76527333  0.46140879  0.24899965  1
  Cl  Cl18  1  0.72536873  0.49091565  0.47004465  1
  Cl  Cl19  1  0.74573647  0.47080069  0.75350596  1
  Cl  Cl20  1  0.53920433  0.74441624  0.98879579  1
  Cl  Cl21  1  0.45086653  0.74237910  0.26236147  1
  Cl  Cl22  1  0.55332597  0.71045484  0.47937090  1
  Cl  Cl23  1  0.47747714  0.76749281  0.77134439  1
  Cl  Cl24  1  0.20220698  0.04379751  0.98290214  1
  Cl  Cl25  1  0.25428877  0.97563776  0.27286110  1
  Cl  Cl26  1  0.26081691  0.02513004  0.48951765  1
  Cl  Cl27  1  0.28833429  0.94841718  0.76341599  1
  Cl  Cl28  1  0.75084909  0.02096644  0.98458090  1
  Cl  Cl29  1  0.80603761  0.99338391  0.26088153  1
  Cl  Cl30  1  0.69925099  0.94883642  0.48271135  1
  Cl  Cl31  1  0.75685620  0.02947887  0.75894064  1
  Cl  Cl32  1  0.09934165  0.09546324  0.14350389  1
  Cl  Cl33  1  0.12803830  0.16880828  0.37229776  1
  Cl  Cl34  1  0.13472256  0.12301884  0.64773954  1
  Cl  Cl35  1  0.12349277  0.09923935  0.83325404  1
  Cl  Cl36  1  0.64180693  0.07449641  0.13228204  1
  Cl  Cl37  1  0.64610763  0.12077802  0.35605441  1
  Cl  Cl38  1  0.60700797  0.17280278  0.63923714  1
  Cl  Cl39  1  0.62225435  0.16052475  0.87129932  1
  Cl  Cl40  1  0.37758300  0.39100964  0.12549591  1
  Cl  Cl41  1  0.34288973  0.35205511  0.36494845  1
  Cl  Cl42  1  0.36076769  0.34147022  0.61443969  1
  Cl  Cl43  1  0.34486575  0.36284441  0.90124322  1
  Cl  Cl44  1  0.09681587  0.63400846  0.12830527  1
  Cl  Cl45  1  0.12039657  0.65396644  0.36741712  1
  Cl  Cl46  1  0.16944066  0.63150267  0.64239452  1
  Cl  Cl47  1  0.14273289  0.58697998  0.86566699  1
  Cl  Cl48  1  0.88285172  0.40944095  0.10261175  1
  Cl  Cl49  1  0.87193107  0.34055643  0.39525050  1
  Cl  Cl50  1  0.84538787  0.35203025  0.59720089  1
  Cl  Cl51  1  0.85448582  0.41067688  0.89523024  1
  Cl  Cl52  1  0.59403425  0.59906737  0.15347919  1
  Cl  Cl53  1  0.61863813  0.61775989  0.33456335  1
  Cl  Cl54  1  0.62996858  0.67162326  0.64212514  1
  Cl  Cl55  1  0.66711996  0.64339727  0.85646409  1
  Cl  Cl56  1  0.43288717  0.87240138  0.11618425  1
  Cl  Cl57  1  0.38681818  0.85086358  0.41032863  1
  Cl  Cl58  1  0.39102769  0.83628184  0.60363177  1
  Cl  Cl59  1  0.36346332  0.88533786  0.92065804  1
  Cl  Cl60  1  0.89792529  0.91123562  0.11318060  1
  Cl  Cl61  1  0.87583002  0.84292293  0.39780517  1
  Cl  Cl62  1  0.87311497  0.86242468  0.61210658  1
  Cl  Cl63  1  0.88997688  0.90478185  0.86464559  1
  Cl  Cl64  1  0.86747061  0.16042415  0.10401165  1
  Cl  Cl65  1  0.88660426  0.09372830  0.40751616  1
  Cl  Cl66  1  0.84102369  0.10706859  0.60007783  1
  Cl  Cl67  1  0.88456180  0.16292973  0.87585318  1
  Cl  Cl68  1  0.35194612  0.09452734  0.12248532  1
  Cl  Cl69  1  0.39687127  0.12091095  0.35868464  1
  Cl  Cl70  1  0.37799846  0.09152869  0.63727527  1
  Cl  Cl71  1  0.38112822  0.13133751  0.86472218  1
  Cl  Cl72  1  0.11859093  0.34517350  0.14588190  1
  Cl  Cl73  1  0.09661264  0.42018787  0.36073352  1
  Cl  Cl74  1  0.12032664  0.39717313  0.65984998  1
  Cl  Cl75  1  0.10382919  0.35734251  0.84217065  1
  Cl  Cl76  1  0.85391737  0.65111517  0.14349230  1
  Cl  Cl77  1  0.88958308  0.60393570  0.36374256  1
  Cl  Cl78  1  0.86181204  0.59504165  0.62399950  1
  Cl  Cl79  1  0.90465087  0.64966963  0.87217391  1
  Cl  Cl80  1  0.64627390  0.36810802  0.10816873  1
  Cl  Cl81  1  0.59398224  0.35624147  0.34701516  1
  Cl  Cl82  1  0.60132468  0.43234097  0.61041673  1
  Cl  Cl83  1  0.59252312  0.40646986  0.90490301  1
  Cl  Cl84  1  0.35827076  0.65129858  0.11167869  1
  Cl  Cl85  1  0.34951222  0.59871235  0.38524397  1
  Cl  Cl86  1  0.40018470  0.58150121  0.59065138  1
  Cl  Cl87  1  0.38870929  0.61585352  0.89341307  1
  Cl  Cl88  1  0.17385449  0.85999509  0.11303365  1
  Cl  Cl89  1  0.11297545  0.89235418  0.40490336  1
  Cl  Cl90  1  0.15211563  0.88214610  0.61409907  1
  Cl  Cl91  1  0.13500442  0.84384346  0.87136254  1
  Cl  Cl92  1  0.67330076  0.82037647  0.13549653  1
  Cl  Cl93  1  0.62583416  0.88000636  0.33464626  1
  Cl  Cl94  1  0.62213393  0.91765923  0.63871343  1
  Cl  Cl95  1  0.62431108  0.89378321  0.86653467  1
  Tl  Tl96  1  0.97478768  0.02964863  0.99363818  1
  Tl  Tl97  1  0.02474570  0.01956258  0.28191023  1
  Tl  Tl98  1  0.02284921  0.02450338  0.51921219  1
  Tl  Tl99  1  0.97472125  0.00710478  0.72714084  1
  Tl  Tl100  1  0.52333106  0.99717217  0.00591587  1
  Tl  Tl101  1  0.48270983  0.00078836  0.23853688  1
  Tl  Tl102  1  0.48241708  0.00655376  0.51748386  1
  Tl  Tl103  1  0.51760474  0.02335633  0.75140862  1
  Tl  Tl104  1  0.25273251  0.26330309  0.02728031  1
  Tl  Tl105  1  0.26539002  0.22299483  0.24467377  1
  Tl  Tl106  1  0.26200729  0.23923832  0.49244880  1
  Tl  Tl107  1  0.25739073  0.25666011  0.75060079  1
  Tl  Tl108  1  -0.00193607  0.51505860  0.99159989  1
  Tl  Tl109  1  0.99439070  0.49799885  0.23032284  1
  Tl  Tl110  1  0.97049940  0.48886462  0.49261388  1
  Tl  Tl111  1  0.97926741  0.51121080  0.76249373  1
  Tl  Tl112  1  0.75468362  0.25843565  0.98971745  1
  Tl  Tl113  1  0.73058534  0.23707410  0.23358565  1
  Tl  Tl114  1  0.73599803  0.23081071  0.48986339  1
  Tl  Tl115  1  0.74601589  0.24945245  0.75244841  1
  Tl  Tl116  1  0.49309426  0.52780003  0.01803838  1
  Tl  Tl117  1  0.45853928  0.49177914  0.26090256  1
  Tl  Tl118  1  0.50389450  0.47492931  0.46669461  1
  Tl  Tl119  1  0.53003451  0.54641456  0.75651164  1
  Tl  Tl120  1  0.22911995  0.72556995  0.99192960  1
  Tl  Tl121  1  0.23082149  0.74191872  0.24324761  1
  Tl  Tl122  1  0.24357440  0.72236421  0.50005119  1
  Tl  Tl123  1  0.25707332  0.72722949  0.76639704  1
  Tl  Tl124  1  0.75660362  0.77818043  0.97883230  1
  Tl  Tl125  1  0.77732393  0.75013128  0.27014508  1
  Tl  Tl126  1  0.77836137  0.71527181  0.50945978  1
  Tl  Tl127  1  0.75812593  0.78664279  0.74355251  1
  Zn  Zn128  1  0.00139808  0.23884512  0.13069657  1
  Zn  Zn129  1  0.00798739  0.27311199  0.36029394  1
  Zn  Zn130  1  0.00366863  0.28792139  0.62617375  1
  Zn  Zn131  1  0.03442430  0.22536403  0.88046310  1
  Zn  Zn132  1  0.50382453  0.28821852  0.11497864  1
  Zn  Zn133  1  0.51571573  0.22432042  0.38254663  1
  Zn  Zn134  1  0.51328192  0.29958832  0.64699653  1
  Zn  Zn135  1  0.49368703  0.26809970  0.88270095  1
  Zn  Zn136  1  0.24982610  0.52854356  0.12414831  1
  Zn  Zn137  1  0.24613336  0.47571894  0.39351329  1
  Zn  Zn138  1  0.26163181  0.48943975  0.62410994  1
  Zn  Zn139  1  0.27810185  0.50137522  0.86080178  1
  Zn  Zn140  1  0.98193052  0.75882719  0.12655280  1
  Zn  Zn141  1  0.01142510  0.76837669  0.36556495  1
  Zn  Zn142  1  0.04441712  0.74843496  0.62681752  1
  Zn  Zn143  1  0.99217611  0.77995427  0.88543064  1
  Zn  Zn144  1  0.75400291  0.50907496  0.12645557  1
  Zn  Zn145  1  0.74943481  0.51855911  0.35906265  1
  Zn  Zn146  1  0.75639445  0.47684687  0.64032071  1
  Zn  Zn147  1  0.72875428  0.50776103  0.89882918  1
  Zn  Zn148  1  0.51721001  0.74595756  0.15169628  1
  Zn  Zn149  1  0.52392361  0.76311275  0.36900481  1
  Zn  Zn150  1  0.49622613  0.72157215  0.59238365  1
  Zn  Zn151  1  0.48782442  0.77949641  0.88357287  1
  Zn  Zn152  1  0.22557268  0.00672119  0.09701318  1
  Zn  Zn153  1  0.26800698  0.96279586  0.38468291  1
  Zn  Zn154  1  0.24491973  0.00666177  0.65833182  1
  Zn  Zn155  1  0.26329759  0.01134414  0.87411901  1
  Zn  Zn156  1  0.75108433  0.96323031  0.15273269  1
  Zn  Zn157  1  0.76090925  0.99758952  0.37893095  1
  Zn  Zn158  1  0.75660417  0.97342649  0.59216027  1
  Zn  Zn159  1  0.74242577  0.01552318  0.87165119  1
