# generated using pymatgen
data_TlZnF3
_symmetry_space_group_name_H-M   'P 1'
_cell_length_a   11.81237576
_cell_length_b   11.81237576
_cell_length_c   16.70522100
_cell_angle_alpha   90.00000000
_cell_angle_beta   90.00000000
_cell_angle_gamma   90.00000000
_symmetry_Int_Tables_number   1
_chemical_formula_structural   TlZnF3
_chemical_formula_sum   'Tl32 Zn32 F96'
_cell_volume   2330.91658900
_cell_formula_units_Z   32
loop_
 _symmetry_equiv_pos_site_id
 _symmetry_equiv_pos_as_xyz
  1  'x, y, z'
loop_
 _atom_site_type_symbol
 _atom_site_label
 _atom_site_symmetry_multiplicity
 _atom_site_fract_x
 _atom_site_fract_y
 _atom_site_fract_z
 _atom_site_occupancy
  F  F0  1  0.00072936  0.25158330  0.00016677  1
  F  F1  1  -0.00010175  0.24983125  0.25017516  1
  F  F2  1  -0.00048187  0.25135415  0.50018115  1
  F  F3  1  0.99965385  0.24957197  0.75019193  1
  F  F4  1  0.50044783  0.25013236  0.00017179  1
  F  F5  1  0.50020330  0.25062602  0.25023768  1
  F  F6  1  0.49925213  0.24975097  0.50021545  1
  F  F7  1  0.49969670  0.25074859  0.75016497  1
  F  F8  1  0.25028413  0.50013033  0.00017447  1
  F  F9  1  0.25048617  0.50082112  0.25022770  1
  F  F10  1  0.24898347  0.49969614  0.50023671  1
  F  F11  1  0.25025814  0.50041749  0.75021004  1
  F  F12  1  0.00014922  0.75068240  0.00021579  1
  F  F13  1  0.00051272  0.75044061  0.25023618  1
  F  F14  1  0.99902342  0.75054581  0.50017050  1
  F  F15  1  0.00039399  0.75084816  0.75018445  1
  F  F16  1  0.75107556  0.50074003  0.00006736  1
  F  F17  1  0.74969207  0.50060514  0.25020259  1
  F  F18  1  0.74991427  0.50030618  0.50029292  1
  F  F19  1  0.74942212  0.50113613  0.75014535  1
  F  F20  1  0.50054334  0.75096218  0.00024795  1
  F  F21  1  0.50033534  0.74925764  0.25019538  1
  F  F22  1  0.49940056  0.75077255  0.50017426  1
  F  F23  1  0.49988372  0.75015656  0.75017623  1
  F  F24  1  0.25118563  0.00029475  0.00027921  1
  F  F25  1  0.24939518  0.00061916  0.25017110  1
  F  F26  1  0.24992949  0.99997562  0.50003923  1
  F  F27  1  0.24947739  0.00010041  0.75016612  1
  F  F28  1  0.75006700  0.00038422  0.00023590  1
  F  F29  1  0.75033767  0.00108209  0.25020029  1
  F  F30  1  0.74900133  0.00008794  0.50021848  1
  F  F31  1  0.75049042  0.00134837  0.75020906  1
  F  F32  1  0.12541842  0.12552866  0.12477015  1
  F  F33  1  0.12440166  0.12514160  0.37553256  1
  F  F34  1  0.12468371  0.12536660  0.62478477  1
  F  F35  1  0.12522297  0.12537745  0.87562597  1
  F  F36  1  0.62542194  0.12547464  0.12535618  1
  F  F37  1  0.62434273  0.12495446  0.37519584  1
  F  F38  1  0.62464561  0.12555605  0.62536440  1
  F  F39  1  0.62517503  0.12551478  0.87512970  1
  F  F40  1  0.37549047  0.37534394  0.12511862  1
  F  F41  1  0.37475428  0.37515792  0.37539018  1
  F  F42  1  0.37421062  0.37483956  0.62510496  1
  F  F43  1  0.37536883  0.37538566  0.87538605  1
  F  F44  1  0.12552038  0.62554703  0.12505160  1
  F  F45  1  0.12451376  0.62508525  0.37541542  1
  F  F46  1  0.12461056  0.62542041  0.62515509  1
  F  F47  1  0.12530562  0.62552541  0.87538694  1
  F  F48  1  0.87543216  0.37557266  0.12547991  1
  F  F49  1  0.87484589  0.37564949  0.37489296  1
  F  F50  1  0.87438365  0.37541316  0.62564130  1
  F  F51  1  0.87538547  0.37585541  0.87479521  1
  F  F52  1  0.62547933  0.62535348  0.12489144  1
  F  F53  1  0.62450324  0.62494781  0.37559968  1
  F  F54  1  0.62457575  0.62566542  0.62497496  1
  F  F55  1  0.62522095  0.62557235  0.87542031  1
  F  F56  1  0.37538835  0.87522709  0.12575687  1
  F  F57  1  0.37477253  0.87515129  0.37474454  1
  F  F58  1  0.37427995  0.87494272  0.62543094  1
  F  F59  1  0.37528823  0.87534538  0.87510616  1
  F  F60  1  0.87538468  0.87553774  0.12544031  1
  F  F61  1  0.87479956  0.87561711  0.37503881  1
  F  F62  1  0.87443049  0.87543091  0.62538325  1
  F  F63  1  0.87535728  0.87577856  0.87519789  1
  F  F64  1  0.87544718  0.12560306  0.12470387  1
  F  F65  1  0.87446710  0.12555449  0.37567000  1
  F  F66  1  0.87470461  0.12541764  0.62466799  1
  F  F67  1  0.87520306  0.12581620  0.87571111  1
  F  F68  1  0.37550242  0.12531598  0.12543870  1
  F  F69  1  0.37446849  0.12523815  0.37495223  1
  F  F70  1  0.37477062  0.12484744  0.62541407  1
  F  F71  1  0.37528412  0.12533987  0.87505441  1
  F  F72  1  0.12551033  0.37547454  0.12571806  1
  F  F73  1  0.12489649  0.37511142  0.37470985  1
  F  F74  1  0.12444297  0.37534541  0.62578881  1
  F  F75  1  0.12542188  0.37541237  0.87472098  1
  F  F76  1  0.87551969  0.62555408  0.12536579  1
  F  F77  1  0.87449286  0.62559696  0.37509820  1
  F  F78  1  0.87465002  0.62551293  0.62542577  1
  F  F79  1  0.87535403  0.62585557  0.87504603  1
  F  F80  1  0.62562224  0.37538368  0.12489819  1
  F  F81  1  0.62493426  0.37496832  0.37549842  1
  F  F82  1  0.62430158  0.37557534  0.62509215  1
  F  F83  1  0.62546729  0.37546966  0.87536947  1
  F  F84  1  0.37557247  0.62519470  0.12503713  1
  F  F85  1  0.37464214  0.62516799  0.37561355  1
  F  F86  1  0.37474805  0.62498094  0.62495058  1
  F  F87  1  0.37539056  0.62533628  0.87546142  1
  F  F88  1  0.12542218  0.87547491  0.12503860  1
  F  F89  1  0.12484044  0.87507261  0.37536125  1
  F  F90  1  0.12449310  0.87544091  0.62489460  1
  F  F91  1  0.12549466  0.87541249  0.87556426  1
  F  F92  1  0.62544093  0.87538354  0.12564035  1
  F  F93  1  0.62488906  0.87499823  0.37485858  1
  F  F94  1  0.62445143  0.87563678  0.62554012  1
  F  F95  1  0.62541294  0.87554613  0.87490463  1
  Tl  Tl96  1  0.00047138  0.00064070  0.00027585  1
  Tl  Tl97  1  0.00010873  0.00042042  0.25022334  1
  Tl  Tl98  1  -0.00056152  0.00040649  0.50019725  1
  Tl  Tl99  1  -0.00020270  0.00046108  0.75024179  1
  Tl  Tl100  1  0.50038627  0.00043879  0.00015317  1
  Tl  Tl101  1  0.50003925  0.00014162  0.25014352  1
  Tl  Tl102  1  0.49946488  0.00008114  0.50007720  1
  Tl  Tl103  1  0.49983907  0.00037723  0.75013390  1
  Tl  Tl104  1  0.25044887  0.25034669  0.00023806  1
  Tl  Tl105  1  0.25008767  0.25020453  0.25023223  1
  Tl  Tl106  1  0.24963041  0.25000850  0.50015134  1
  Tl  Tl107  1  0.24989847  0.25032203  0.75019364  1
  Tl  Tl108  1  0.00051617  0.50060282  0.00010155  1
  Tl  Tl109  1  0.00004178  0.50043669  0.25014254  1
  Tl  Tl110  1  0.99959175  0.50028346  0.50024677  1
  Tl  Tl111  1  -0.00007232  0.50053068  0.75018386  1
  Tl  Tl112  1  0.75049509  0.25060302  0.00019950  1
  Tl  Tl113  1  0.75010149  0.25032276  0.25020593  1
  Tl  Tl114  1  0.74941941  0.25041801  0.50031675  1
  Tl  Tl115  1  0.74994033  0.25061046  0.75023733  1
  Tl  Tl116  1  0.50046059  0.50035748  0.00019354  1
  Tl  Tl117  1  0.50015473  0.50021294  0.25018528  1
  Tl  Tl118  1  0.49950993  0.50018608  0.50025455  1
  Tl  Tl119  1  0.49997035  0.50045314  0.75022210  1
  Tl  Tl120  1  0.25046748  0.75039578  0.00022998  1
  Tl  Tl121  1  0.25011149  0.75003370  0.25019753  1
  Tl  Tl122  1  0.24942214  0.75016224  0.50024862  1
  Tl  Tl123  1  0.24993490  0.75033970  0.75026076  1
  Tl  Tl124  1  0.75048442  0.75056987  0.00023001  1
  Tl  Tl125  1  0.75009399  0.75046746  0.25019790  1
  Tl  Tl126  1  0.74960291  0.75037279  0.50019179  1
  Tl  Tl127  1  0.74992012  0.75060254  0.75026922  1
  Zn  Zn128  1  0.00048189  0.25059625  0.12513730  1
  Zn  Zn129  1  -0.00036201  0.25039606  0.37508699  1
  Zn  Zn130  1  -0.00046970  0.25044755  0.62510173  1
  Zn  Zn131  1  0.00034895  0.25063586  0.87510177  1
  Zn  Zn132  1  0.50050187  0.25045662  0.12511174  1
  Zn  Zn133  1  0.49962107  0.25019586  0.37513435  1
  Zn  Zn134  1  0.49945973  0.25028148  0.62514369  1
  Zn  Zn135  1  0.50031481  0.25051926  0.87510957  1
  Zn  Zn136  1  0.25050482  0.50038491  0.12510907  1
  Zn  Zn137  1  0.24968308  0.50023089  0.37515359  1
  Zn  Zn138  1  0.24951466  0.50024892  0.62511669  1
  Zn  Zn139  1  0.25039268  0.50045582  0.87511643  1
  Zn  Zn140  1  0.00045663  0.75059116  0.12515494  1
  Zn  Zn141  1  0.99965302  0.75035910  0.37514200  1
  Zn  Zn142  1  -0.00050133  0.75050841  0.62510207  1
  Zn  Zn143  1  0.00040330  0.75073630  0.87515876  1
  Zn  Zn144  1  0.75051204  0.50056187  0.12512596  1
  Zn  Zn145  1  0.74970237  0.50033567  0.37514283  1
  Zn  Zn146  1  0.74946804  0.50055922  0.62515486  1
  Zn  Zn147  1  0.75034747  0.50074952  0.87509101  1
  Zn  Zn148  1  0.50050355  0.75035247  0.12516017  1
  Zn  Zn149  1  0.49969229  0.75015450  0.37511846  1
  Zn  Zn150  1  0.49950127  0.75041885  0.62512708  1
  Zn  Zn151  1  0.50034869  0.75051291  0.87513263  1
  Zn  Zn152  1  0.25047698  0.00042484  0.12513218  1
  Zn  Zn153  1  0.24957331  0.00018379  0.37509326  1
  Zn  Zn154  1  0.24951679  0.00025381  0.62510033  1
  Zn  Zn155  1  0.25034834  0.00048293  0.87515184  1
  Zn  Zn156  1  0.75045303  0.00057812  0.12514736  1
  Zn  Zn157  1  0.74959556  0.00036854  0.37511448  1
  Zn  Zn158  1  0.74952506  0.00054753  0.62515126  1
  Zn  Zn159  1  0.75035906  0.00071587  0.87515047  1
