# generated using pymatgen
data_ZnAgCl3
_symmetry_space_group_name_H-M   'P 1'
_cell_length_a   13.77991876
_cell_length_b   13.77991876
_cell_length_c   19.48774700
_cell_angle_alpha   90.00000000
_cell_angle_beta   90.00000000
_cell_angle_gamma   90.00000000
_symmetry_Int_Tables_number   1
_chemical_formula_structural   ZnAgCl3
_chemical_formula_sum   'Zn32 Ag32 Cl96'
_cell_volume   3700.45346546
_cell_formula_units_Z   32
loop_
 _symmetry_equiv_pos_site_id
 _symmetry_equiv_pos_as_xyz
  1  'x, y, z'
loop_
 _atom_site_type_symbol
 _atom_site_label
 _atom_site_symmetry_multiplicity
 _atom_site_fract_x
 _atom_site_fract_y
 _atom_site_fract_z
 _atom_site_occupancy
  Ag  Ag0  1  0.00365978  0.02315662  0.94623708  1
  Ag  Ag1  1  0.94908547  0.98268425  0.25512517  1
  Ag  Ag2  1  0.09396088  0.95576392  0.44801536  1
  Ag  Ag3  1  0.04859294  0.97854733  0.67205794  1
  Ag  Ag4  1  0.55681284  0.93615525  0.01864491  1
  Ag  Ag5  1  0.47062365  0.02475769  0.27830411  1
  Ag  Ag6  1  0.55598069  0.05188515  0.45956728  1
  Ag  Ag7  1  0.45534138  0.96425637  0.81830406  1
  Ag  Ag8  1  0.15691468  0.25488048  0.97445055  1
  Ag  Ag9  1  0.23439928  0.32207247  0.21849997  1
  Ag  Ag10  1  0.30521157  0.29610333  0.53644265  1
  Ag  Ag11  1  0.14775826  0.26992362  0.75822364  1
  Ag  Ag12  1  0.03047319  0.51856124  0.03864308  1
  Ag  Ag13  1  0.03685369  0.47835219  0.31548393  1
  Ag  Ag14  1  0.05707046  0.43837319  0.51366454  1
  Ag  Ag15  1  0.96998146  0.50055795  0.83384366  1
  Ag  Ag16  1  0.74360722  0.26503954  0.04684014  1
  Ag  Ag17  1  0.73103674  0.22599779  0.25214988  1
  Ag  Ag18  1  0.79606647  0.31295973  0.50877087  1
  Ag  Ag19  1  0.66554446  0.24560360  0.78804657  1
  Ag  Ag20  1  0.46359182  0.41831448  0.02212453  1
  Ag  Ag21  1  0.50877020  0.47240418  0.19398582  1
  Ag  Ag22  1  0.53648434  0.42844442  0.51681111  1
  Ag  Ag23  1  0.55238253  0.44838096  0.71628476  1
  Ag  Ag24  1  0.18413247  0.76298674  0.94324452  1
  Ag  Ag25  1  0.17422743  0.80866853  0.23247541  1
  Ag  Ag26  1  0.32965127  0.80614326  0.44699486  1
  Ag  Ag27  1  0.17748372  0.76766717  0.76563006  1
  Ag  Ag28  1  0.71934112  0.62007606  0.03941362  1
  Ag  Ag29  1  0.72609318  0.76154238  0.21540817  1
  Ag  Ag30  1  0.74172797  0.80477340  0.47460737  1
  Ag  Ag31  1  0.65093276  0.78995992  0.78782345  1
  Cl  Cl32  1  0.96657506  0.20193121  0.98271640  1
  Cl  Cl33  1  0.03227542  0.30424567  0.26236787  1
  Cl  Cl34  1  0.98862167  0.11962318  0.49346722  1
  Cl  Cl35  1  0.96829424  0.32264732  0.79506111  1
  Cl  Cl36  1  0.54755499  0.25410239  0.02699514  1
  Cl  Cl37  1  0.54943400  0.29201120  0.20726201  1
  Cl  Cl38  1  0.47763938  0.23089759  0.47355570  1
  Cl  Cl39  1  0.37886253  0.14589609  0.77693298  1
  Cl  Cl40  1  0.27104058  0.60141960  0.99873835  1
  Cl  Cl41  1  0.22617007  0.47697461  0.29636705  1
  Cl  Cl42  1  0.36702489  0.47432034  0.49493434  1
  Cl  Cl43  1  0.24214633  0.42616982  0.78067248  1
  Cl  Cl44  1  0.94643076  0.69693685  0.00364730  1
  Cl  Cl45  1  0.99542761  0.80431514  0.20450491  1
  Cl  Cl46  1  0.99160702  0.74433889  0.51131730  1
  Cl  Cl47  1  0.98773173  0.81327215  0.70008115  1
  Cl  Cl48  1  0.80313303  0.50844371  0.94912725  1
  Cl  Cl49  1  0.78942536  0.40985209  0.27084744  1
  Cl  Cl50  1  0.78545621  0.62228985  0.47766014  1
  Cl  Cl51  1  0.74645254  0.42445595  0.75788242  1
  Cl  Cl52  1  0.53022190  0.58504015  0.99687348  1
  Cl  Cl53  1  0.52764045  0.82812062  0.27095958  1
  Cl  Cl54  1  0.55972418  0.73766332  0.46797706  1
  Cl  Cl55  1  0.47945803  0.82795894  0.72701445  1
  Cl  Cl56  1  0.17724353  0.04292424  0.02755616  1
  Cl  Cl57  1  0.29045500  0.95654709  0.21823657  1
  Cl  Cl58  1  0.23783622  0.13305506  0.50429338  1
  Cl  Cl59  1  0.24264510  0.92949533  0.73276107  1
  Cl  Cl60  1  0.70056056  0.05277893  0.02015609  1
  Cl  Cl61  1  0.76867242  0.94430844  0.21228600  1
  Cl  Cl62  1  0.73454037  0.13531186  0.51017417  1
  Cl  Cl63  1  0.75368672  0.91334516  0.72133972  1
  Cl  Cl64  1  0.06248297  0.08563440  0.17587178  1
  Cl  Cl65  1  0.13268032  0.07561727  0.34118272  1
  Cl  Cl66  1  0.12253557  0.14818491  0.66100086  1
  Cl  Cl67  1  0.16246451  0.13611505  0.86329313  1
  Cl  Cl68  1  0.54440847  0.03692590  0.15914646  1
  Cl  Cl69  1  0.60399340  0.15271613  0.33444986  1
  Cl  Cl70  1  0.63303269  0.15290310  0.67715951  1
  Cl  Cl71  1  0.61566975  0.06158839  0.84817415  1
  Cl  Cl72  1  0.34331070  0.44158451  0.12876098  1
  Cl  Cl73  1  0.47192607  0.43408216  0.33235527  1
  Cl  Cl74  1  0.43639547  0.31860766  0.64459344  1
  Cl  Cl75  1  0.31762149  0.35214890  0.93815586  1
  Cl  Cl76  1  0.09569655  0.57220168  0.15281475  1
  Cl  Cl77  1  0.16616613  0.57386521  0.46066116  1
  Cl  Cl78  1  0.17492668  0.64937579  0.65121683  1
  Cl  Cl79  1  0.11785148  0.63631199  0.84514110  1
  Cl  Cl80  1  0.91006824  0.39485911  0.09672762  1
  Cl  Cl81  1  0.90897426  0.42441360  0.42094896  1
  Cl  Cl82  1  0.93549422  0.34328904  0.59634598  1
  Cl  Cl83  1  0.74493934  0.27267155  0.90972852  1
  Cl  Cl84  1  0.56617908  0.63909008  0.16653233  1
  Cl  Cl85  1  0.68281750  0.62555551  0.31995800  1
  Cl  Cl86  1  0.65957203  0.69464605  0.64093074  1
  Cl  Cl87  1  0.60626947  0.60940370  0.81588774  1
  Cl  Cl88  1  0.41790687  0.84465316  0.07336156  1
  Cl  Cl89  1  0.39057983  0.98019133  0.39795384  1
  Cl  Cl90  1  0.37686735  0.79030914  0.57385624  1
  Cl  Cl91  1  0.30594499  0.89073488  0.89458749  1
  Cl  Cl92  1  0.92885863  0.94516745  0.05790876  1
  Cl  Cl93  1  0.93522133  0.91609825  0.37950227  1
  Cl  Cl94  1  0.84959023  0.92373173  0.54650417  1
  Cl  Cl95  1  0.77964268  0.86227208  0.90495350  1
  Cl  Cl96  1  0.83663587  0.17749445  0.14944359  1
  Cl  Cl97  1  0.87112043  0.15675383  0.35033849  1
  Cl  Cl98  1  0.87224056  0.11123510  0.66739653  1
  Cl  Cl99  1  0.89836152  0.07663320  0.83127294  1
  Cl  Cl100  1  0.32862239  0.18779343  0.13039643  1
  Cl  Cl101  1  0.34400072  0.21183409  0.31415660  1
  Cl  Cl102  1  0.40355187  0.05060443  0.60554942  1
  Cl  Cl103  1  0.41150650  0.11197357  0.94686902  1
  Cl  Cl104  1  0.13011327  0.30470568  0.10162910  1
  Cl  Cl105  1  0.12911254  0.31540584  0.41966523  1
  Cl  Cl106  1  0.18327784  0.39302494  0.61527145  1
  Cl  Cl107  1  0.09055684  0.43614065  0.93283724  1
  Cl  Cl108  1  0.83990345  0.63157279  0.16139350  1
  Cl  Cl109  1  0.95885598  0.64178326  0.33335429  1
  Cl  Cl110  1  0.90592094  0.57397461  0.64448637  1
  Cl  Cl111  1  0.86888739  0.65853418  0.81254166  1
  Cl  Cl112  1  0.67107225  0.43878455  0.09663465  1
  Cl  Cl113  1  0.66598005  0.38323278  0.42207396  1
  Cl  Cl114  1  0.67826671  0.43625368  0.59830233  1
  Cl  Cl115  1  0.52260502  0.35447572  0.83946100  1
  Cl  Cl116  1  0.31292856  0.68455671  0.19710303  1
  Cl  Cl117  1  0.38227215  0.66447304  0.35913837  1
  Cl  Cl118  1  0.41900302  0.56479045  0.66703043  1
  Cl  Cl119  1  0.35783988  0.62142235  0.84113847  1
  Cl  Cl120  1  0.16823709  0.80809467  0.07029041  1
  Cl  Cl121  1  0.17159575  0.80349348  0.37129582  1
  Cl  Cl122  1  0.15926635  0.90529568  0.56261221  1
  Cl  Cl123  1  0.04227017  0.87020454  0.87542044  1
  Cl  Cl124  1  0.69437886  0.80101834  0.06976024  1
  Cl  Cl125  1  0.69254233  0.94579609  0.39278809  1
  Cl  Cl126  1  0.60563488  0.94044775  0.57128918  1
  Cl  Cl127  1  0.53989587  0.81935046  0.90501507  1
  Zn  Zn128  1  0.98789471  0.25255603  0.15145619  1
  Zn  Zn129  1  0.02809635  0.20593698  0.37388642  1
  Zn  Zn130  1  0.98589693  0.18887734  0.59971946  1
  Zn  Zn131  1  0.89640859  0.23433559  0.87954533  1
  Zn  Zn132  1  0.49789128  0.18445131  0.12622670  1
  Zn  Zn133  1  0.49547488  0.27342602  0.35964898  1
  Zn  Zn134  1  0.46812024  0.16585985  0.67657092  1
  Zn  Zn135  1  0.41267481  0.24513520  0.87348952  1
  Zn  Zn136  1  0.24880991  0.57772774  0.11549547  1
  Zn  Zn137  1  0.32837510  0.50585049  0.38427551  1
  Zn  Zn138  1  0.26942275  0.50582789  0.67286577  1
  Zn  Zn139  1  0.23352439  0.51597424  0.88954832  1
  Zn  Zn140  1  0.00860719  0.80383496  0.08865254  1
  Zn  Zn141  1  0.06660673  0.68509484  0.41332112  1
  Zn  Zn142  1  0.01734410  0.69574808  0.62093361  1
  Zn  Zn143  1  0.91685219  0.76863899  0.89660291  1
  Zn  Zn144  1  0.79830689  0.47539335  0.16510248  1
  Zn  Zn145  1  0.76930144  0.50303116  0.38334891  1
  Zn  Zn146  1  0.75858427  0.57957778  0.58849232  1
  Zn  Zn147  1  0.74911661  0.53183334  0.84404873  1
  Zn  Zn148  1  0.45764064  0.76207149  0.16655931  1
  Zn  Zn149  1  0.54583875  0.70726879  0.35570149  1
  Zn  Zn150  1  0.53517478  0.80454682  0.61765959  1
  Zn  Zn151  1  0.48942982  0.66358168  0.90179428  1
  Zn  Zn152  1  0.22239121  0.05814758  0.14330949  1
  Zn  Zn153  1  0.28008129  0.11043019  0.39643856  1
  Zn  Zn154  1  0.29777377  0.92570104  0.62428393  1
  Zn  Zn155  1  0.26439949  0.04044297  0.92638005  1
  Zn  Zn156  1  0.76740338  0.94839661  0.09532348  1
  Zn  Zn157  1  0.83044520  0.02584064  0.43632011  1
  Zn  Zn158  1  0.74875874  0.02483674  0.61162331  1
  Zn  Zn159  1  0.75750038  0.98902718  0.82646869  1
