# generated using pymatgen
data_ZnInCl3
_symmetry_space_group_name_H-M   'P 1'
_cell_length_a   14.02049487
_cell_length_b   14.02049487
_cell_length_c   19.82797400
_cell_angle_alpha   90.00000000
_cell_angle_beta   90.00000000
_cell_angle_gamma   90.00000000
_symmetry_Int_Tables_number   1
_chemical_formula_structural   ZnInCl3
_chemical_formula_sum   'Zn32 In32 Cl96'
_cell_volume   3897.66964296
_cell_formula_units_Z   32
loop_
 _symmetry_equiv_pos_site_id
 _symmetry_equiv_pos_as_xyz
  1  'x, y, z'
loop_
 _atom_site_type_symbol
 _atom_site_label
 _atom_site_symmetry_multiplicity
 _atom_site_fract_x
 _atom_site_fract_y
 _atom_site_fract_z
 _atom_site_occupancy
  Cl  Cl0  1  0.98856168  0.29122913  0.01957062  1
  Cl  Cl1  1  0.00349972  0.23520342  0.22766404  1
  Cl  Cl2  1  0.97301109  0.28875482  0.52004825  1
  Cl  Cl3  1  0.93705867  0.22261934  0.71902550  1
  Cl  Cl4  1  0.48786453  0.28483174  0.01401291  1
  Cl  Cl5  1  0.47750096  0.25121778  0.22851780  1
  Cl  Cl6  1  0.41924711  0.33601985  0.51114148  1
  Cl  Cl7  1  0.48281864  0.18144122  0.74519827  1
  Cl  Cl8  1  0.27720966  0.50336935  0.98073185  1
  Cl  Cl9  1  0.19622761  0.54093590  0.27091803  1
  Cl  Cl10  1  0.23183670  0.50525714  0.48069451  1
  Cl  Cl11  1  0.25824803  0.54800172  0.77217066  1
  Cl  Cl12  1  0.97341382  0.74330718  0.02734099  1
  Cl  Cl13  1  0.00258773  0.69985445  0.23165923  1
  Cl  Cl14  1  0.94727680  0.80910863  0.50667229  1
  Cl  Cl15  1  0.05028005  0.66071740  0.73768832  1
  Cl  Cl16  1  0.73447070  0.46828600  0.98211336  1
  Cl  Cl17  1  0.71670143  0.48331511  0.26802635  1
  Cl  Cl18  1  0.71857323  0.47600711  0.48106663  1
  Cl  Cl19  1  0.73898443  0.46919866  0.76687581  1
  Cl  Cl20  1  0.54057934  0.78185344  0.98903173  1
  Cl  Cl21  1  0.46552716  0.71453926  0.24175810  1
  Cl  Cl22  1  0.50952897  0.76181817  0.52697439  1
  Cl  Cl23  1  0.52889256  0.73614626  0.73538660  1
  Cl  Cl24  1  0.26327364  0.95650691  0.98440506  1
  Cl  Cl25  1  0.26005256  0.03418095  0.27344414  1
  Cl  Cl26  1  0.28694561  0.97156370  0.48591748  1
  Cl  Cl27  1  0.26716420  0.09097063  0.75992750  1
  Cl  Cl28  1  0.73460189  0.93939925  0.01546143  1
  Cl  Cl29  1  0.79629195  0.05785385  0.24322195  1
  Cl  Cl30  1  0.72436225  0.91715648  0.46850965  1
  Cl  Cl31  1  0.79833991  0.02958036  0.74556947  1
  Cl  Cl32  1  0.14421172  0.12138158  0.09599483  1
  Cl  Cl33  1  0.16162858  0.16518360  0.41435466  1
  Cl  Cl34  1  0.12501282  0.14543871  0.62231935  1
  Cl  Cl35  1  0.10626165  0.15738155  0.89074911  1
  Cl  Cl36  1  0.63824259  0.12138174  0.11186943  1
  Cl  Cl37  1  0.66555706  0.11268746  0.38435206  1
  Cl  Cl38  1  0.62759359  0.10564271  0.60856638  1
  Cl  Cl39  1  0.62718448  0.10581367  0.88365310  1
  Cl  Cl40  1  0.34820228  0.40924647  0.13810549  1
  Cl  Cl41  1  0.31616222  0.34822770  0.33884977  1
  Cl  Cl42  1  0.32052402  0.34979359  0.67681811  1
  Cl  Cl43  1  0.31343426  0.34440132  0.85309357  1
  Cl  Cl44  1  0.18215345  0.65152040  0.11480486  1
  Cl  Cl45  1  0.10551176  0.67180644  0.39400304  1
  Cl  Cl46  1  0.13922283  0.68332412  0.58170495  1
  Cl  Cl47  1  0.13841187  0.67284157  0.90643029  1
  Cl  Cl48  1  0.80132184  0.30647404  0.13423055  1
  Cl  Cl49  1  0.83369415  0.31642160  0.36996607  1
  Cl  Cl50  1  0.81451241  0.36576767  0.62648291  1
  Cl  Cl51  1  0.85497047  0.30961804  0.86633036  1
  Cl  Cl52  1  0.67430954  0.65351588  0.12552701  1
  Cl  Cl53  1  0.62644412  0.66137589  0.38247824  1
  Cl  Cl54  1  0.63912005  0.59479306  0.63034139  1
  Cl  Cl55  1  0.63424097  0.62766374  0.86527972  1
  Cl  Cl56  1  0.33631460  0.87970671  0.14302025  1
  Cl  Cl57  1  0.42390077  0.87046522  0.37451664  1
  Cl  Cl58  1  0.42486132  0.92518890  0.65215048  1
  Cl  Cl59  1  0.43392597  0.90914408  0.84564373  1
  Cl  Cl60  1  0.82830751  0.85106211  0.15375886  1
  Cl  Cl61  1  0.88409776  0.86389006  0.33651992  1
  Cl  Cl62  1  0.92968984  0.85683515  0.67331818  1
  Cl  Cl63  1  0.93028160  0.84072170  0.85640441  1
  Cl  Cl64  1  0.90588221  0.07605812  0.08386790  1
  Cl  Cl65  1  0.93054668  0.09733435  0.39211445  1
  Cl  Cl66  1  0.87056256  0.06925555  0.56549742  1
  Cl  Cl67  1  0.88669031  0.06314354  0.90191911  1
  Cl  Cl68  1  0.38020188  0.11400436  0.11020759  1
  Cl  Cl69  1  0.42605008  0.12910524  0.38776399  1
  Cl  Cl70  1  0.36737955  0.13736416  0.58723777  1
  Cl  Cl71  1  0.37685303  0.12988061  0.91253342  1
  Cl  Cl72  1  0.10403909  0.40543303  0.13425508  1
  Cl  Cl73  1  0.07063160  0.37733969  0.37406126  1
  Cl  Cl74  1  0.10649172  0.44433713  0.63201786  1
  Cl  Cl75  1  0.08057500  0.41618006  0.87764845  1
  Cl  Cl76  1  0.87816187  0.54798169  0.12265856  1
  Cl  Cl77  1  0.88147886  0.60171513  0.38127516  1
  Cl  Cl78  1  0.88904053  0.60771709  0.61927502  1
  Cl  Cl79  1  0.90049130  0.58902165  0.88408003  1
  Cl  Cl80  1  0.59570260  0.42174361  0.12347039  1
  Cl  Cl81  1  0.57629642  0.35858142  0.37578495  1
  Cl  Cl82  1  0.57648223  0.35325230  0.63582986  1
  Cl  Cl83  1  0.57221478  0.34670345  0.86243496  1
  Cl  Cl84  1  0.42836740  0.62697143  0.09482124  1
  Cl  Cl85  1  0.39309702  0.60478887  0.37654970  1
  Cl  Cl86  1  0.36530886  0.59846987  0.62224879  1
  Cl  Cl87  1  0.39779385  0.66333989  0.86898804  1
  Cl  Cl88  1  0.09873667  0.89562647  0.13995287  1
  Cl  Cl89  1  0.12199090  0.90806210  0.37064730  1
  Cl  Cl90  1  0.17813895  0.91069096  0.64204762  1
  Cl  Cl91  1  0.17502010  0.89529939  0.83843809  1
  Cl  Cl92  1  0.57651382  0.89092586  0.13533458  1
  Cl  Cl93  1  0.65086649  0.88424385  0.29196979  1
  Cl  Cl94  1  0.69697403  0.85539839  0.63183598  1
  Cl  Cl95  1  0.68406989  0.85799798  0.85258167  1
  In  In96  1  0.04322347  0.94001787  0.97482594  1
  In  In97  1  0.01508799  0.02181002  0.25902880  1
  In  In98  1  0.07665483  0.99780333  0.50770924  1
  In  In99  1  0.02815158  0.00625630  0.75818416  1
  In  In100  1  0.50814506  0.99161022  0.01175502  1
  In  In101  1  0.47068920  0.01272219  0.23910474  1
  In  In102  1  0.51907927  0.98742398  0.49106195  1
  In  In103  1  0.58067865  0.99232292  0.75413253  1
  In  In104  1  0.24510816  0.28243076  0.99653738  1
  In  In105  1  0.23112872  0.24021290  0.20761667  1
  In  In106  1  0.20713735  0.29994957  0.52955208  1
  In  In107  1  0.14993897  0.27873936  0.76442708  1
  In  In108  1  0.03298157  0.52939878  0.01702328  1
  In  In109  1  0.98191920  0.46793717  0.25049835  1
  In  In110  1  0.02464673  0.52995361  0.49311960  1
  In  In111  1  0.95522518  0.44933402  0.74473541  1
  In  In112  1  0.70538245  0.25818809  0.98267919  1
  In  In113  1  0.68740217  0.24172123  0.26570875  1
  In  In114  1  0.71183593  0.24894298  0.50261086  1
  In  In115  1  0.71060383  0.25040590  0.74622551  1
  In  In116  1  0.50335783  0.50697246  0.98054658  1
  In  In117  1  0.48589651  0.48151389  0.24935718  1
  In  In118  1  0.50139733  0.53910693  0.50230973  1
  In  In119  1  0.50906260  0.51254961  0.74763971  1
  In  In120  1  0.30954466  0.73698256  0.00552481  1
  In  In121  1  0.21739756  0.77503544  0.24941904  1
  In  In122  1  0.28596432  0.74673267  0.47315156  1
  In  In123  1  0.29021538  0.76300849  0.74073612  1
  In  In124  1  0.75877329  0.71963825  0.99443643  1
  In  In125  1  0.78150200  0.70230665  0.25998231  1
  In  In126  1  0.74464485  0.72063355  0.49952897  1
  In  In127  1  0.78169699  0.72229022  0.74504350  1
  Zn  Zn128  1  0.94384151  0.22535162  0.12293558  1
  Zn  Zn129  1  0.99178076  0.24396519  0.40419692  1
  Zn  Zn130  1  0.96686023  0.18735378  0.61149844  1
  Zn  Zn131  1  0.96067268  0.21478870  0.91789186  1
  Zn  Zn132  1  0.50667171  0.23180771  0.11895770  1
  Zn  Zn133  1  0.43880951  0.28906705  0.40331102  1
  Zn  Zn134  1  0.44868699  0.25998262  0.63984877  1
  Zn  Zn135  1  0.44370238  0.25099789  0.84692607  1
  Zn  Zn136  1  0.22746008  0.50930385  0.15364362  1
  Zn  Zn137  1  0.27123731  0.49967698  0.37081387  1
  Zn  Zn138  1  0.24956495  0.50269526  0.65734609  1
  Zn  Zn139  1  0.20396626  0.51940691  0.87975504  1
  Zn  Zn140  1  0.97976042  0.78363963  0.13696594  1
  Zn  Zn141  1  0.00780762  0.79885023  0.39950433  1
  Zn  Zn142  1  0.00294124  0.74002763  0.61914513  1
  Zn  Zn143  1  0.00804101  0.70537665  0.84128103  1
  Zn  Zn144  1  0.74485488  0.46921606  0.14525084  1
  Zn  Zn145  1  0.79140413  0.47198377  0.37357114  1
  Zn  Zn146  1  0.76051654  0.50628684  0.59426814  1
  Zn  Zn147  1  0.75389346  0.50957907  0.87497722  1
  Zn  Zn148  1  0.53477928  0.73533821  0.13520941  1
  Zn  Zn149  1  0.54041839  0.77713524  0.33511793  1
  Zn  Zn150  1  0.53583256  0.80386992  0.63302986  1
  Zn  Zn151  1  0.52420844  0.76560446  0.87547134  1
  Zn  Zn152  1  0.24926757  0.99926350  0.09803632  1
  Zn  Zn153  1  0.27323542  0.05190088  0.38661987  1
  Zn  Zn154  1  0.28459788  0.02794719  0.65267365  1
  Zn  Zn155  1  0.29478034  0.00046781  0.86283881  1
  Zn  Zn156  1  0.77054058  0.00733943  0.13207541  1
  Zn  Zn157  1  0.75167498  0.97624354  0.36191662  1
  Zn  Zn158  1  0.75466951  0.01424041  0.63760883  1
  Zn  Zn159  1  0.73724476  0.99485415  0.90749768  1
